taskid: 0 hostname: t0325
 Ntasks in X           18, ntasks in Y           20
--- NOTE: sst_update is 0, setting io_form_auxinput4 = 0 and auxinput4_interval = 0 for all domains
--- NOTE: num_soil_layers has been set to      4
WRF V3.6 MODEL
 *************************************
 Parent domain
 ids,ide,jds,jde            1        1062           1        1236
 ims,ime,jms,jme           -4          66          -4          69
 ips,ipe,jps,jpe            1          59           1          62
 *************************************
DYNAMICS OPTION: nmm dyncore
   alloc_space_field: domain            1,              140273900 bytes allocated
  wrf main: calling open_r_dataset for wrfinput
  med_initialdata_input: calling input_input
  mminlu = 'USGS'
Timing for processing wrfinput file (stream 0) for domain        1:   43.22153 elapsed seconds
Guessing coupling timestep from d01 settings because there is no d02...
dtc=dt*nphs*movemin = 180.000=5.000*6*6
 FORECAST BEGINS  0 GMT  0/ 0/   0
hifreq open: is not atcf
HIFREQ OPEN TRY FID = 94
HIFREQ OPEN UNUSED!!  94
HIFREQ APPEND  "                                                                 hifreq_d01.htcf"
Partial ATCF output unit is now 0
hifreq open: is atcf
HIFREQ OPEN TRY FID = 94
HIFREQ OPEN TRY FID = 95
HIFREQ OPEN UNUSED!!  95
HIFREQ APPEND  "                                                                 track_d01.patcf"
Partial ATCF output unit is now 95
  Grid  1: filling tornado genesis data with zeros
ncep_tracker_init
Grid 1 is resetting swath data.
appear to have grid%cwm values...do not zero
zeroing grid%q2
INIT:  INITIALIZED ARRAYS FOR CLEAN START
    start_nmm TSTART=   1.000000
    start_nmm TPREC=   385.0000
    start_nmm THEAT=   385.0000
    start_nmm TCLOD=   385.0000
    start_nmm TRDSW=   385.0000
    start_nmm TRDLW=   385.0000
    start_nmm TSRFC=   385.0000
    start_nmm PCPFLG= F
    restrt= F nest= F
    grid%pdtop=   39246.01     grid%pt=   200.0000
INPUT LandUse = "USGS"
 LANDUSE TYPE = "USGS" FOUND          33 CATEGORIES           2 SEASONS WATER CATEGORY =           16 SNOW CATEGORY =           24
Climatological albedo is used instead of table values
  WARNING: F_ICE_PHY,F_RAIN_PHY AND F_RIMEF_PHY IS REINITIALIZED
Initializng moist(:,:,:, Qv) from q
Timing for  Timing for start_domain on d           1:    0.99531 elapsed seconds
d01 2005-08-01_12:00:00 open_hist_w : opening wrfout_d01_2005-08-01_12:00:00 for writing.
Polling I/O servers...
I/O server 2 is ready for operations.
d01 2005-08-01_12:00:00  med_hist_out: opened wrfout_d01_2005-08-01_12:00:00 as DATASET=HISTORY
Timing for Writing wrfout_d01_2005-08-01_12:00:00 for domain        1:    1.95625 elapsed seconds
Grid  1: resetting tornado genesis data after stream 0 output
d01 2005-08-01_12:00:00 open_hist_w : opening gsi_wrfhwrf_d01_2005-08-01_12:00:00 for writing.
Polling I/O servers...
I/O server 1 is ready for operations.
d01 2005-08-01_12:00:00  med_hist_out: opened gsi_wrfhwrf_d01_2005-08-01_12:00:00 as DATASET=AUXHIST4
Timing for Writing gsi_wrfhwrf_d01_2005-08-01_12: for domain        1:    0.88487 elapsed seconds
d01 2005-08-01_12:00:00 mminlu = 'USGS'
Timing for processing lateral boundary for domain        1:   26.81069 elapsed seconds
 SOLVE_NMM: TIMESTEP IS     0   TIME IS   0.000 HOURS
 Tile Strategy is not specified. Assuming 1D-Y
WRF TILE   1 IS      1 IE     59 JS      1 JE     62
WRF NUMBER OF TILES =   1
  its=           1 ite=          59
  jts=           1 jte=          62
  kts=           1 kte=          60
Grid  1: resetting tornado genesis data
d01 2005-08-01_12:00:00 Grid  1: filling tornado genesis data with zeros
d01 2005-08-01_12:00:00 grid 1: 0 of 1310335 points (.00%) are in area of interest.
ZEROED OUT PRECIP/RUNOFF ARRAYS
ZEROED OUT SFC EVAP/FLUX ARRAYS
ZEROED OUT ACCUMULATED SHORTWAVE FLUX ARRAYS
ZEROED OUT ACCUMULATED LONGWAVE FLUX ARRAYS
ZEROED OUT ACCUMULATED CLOUD FRACTION ARRAYS
ZEROED OUT ACCUMULATED LATENT HEATING ARRAYS
RESET MAX/MIN TEMPERATURES
RESET MAX/MIN RH
d01 2005-08-01_12:00:00 AM: ATM_TSTEP_INIT entered: gid=1 NTSD=    0 NPHS=  6 KDT=    1 PHYS=T
d01 2005-08-01_12:00:00 AM: ATM_TSTEP_INIT working: grid id = 1; KDT, n_ts:        1       1
d01 2005-08-01_12:00:00 AM: ATM_RECVdtc: AM time step dta=  3.000000000000E+01
d01 2005-08-01_12:00:00 AM: ATM_RECVdtc: to receive C time step; AM time step dta=  3.000000000000E+01
d01 2005-08-01_12:00:00 AM: ATM_RECVdtc: C time step broadcast
d01 2005-08-01_12:00:00 AM: ATM_RECVdtc: C time step assigned   1.800000000000E+02 : standalone mode
d01 2005-08-01_12:00:00 AM: ratio of C/AM time steps:  6
d01 2005-08-01_12:00:00 AM: ATM_TSTEP_INIT to allocate sf, SST_cc
d01 2005-08-01_12:00:00 AM: to send grid dimensions, grid id = 1
d01 2005-08-01_12:00:00 AM: grid dimensions sent, grid id = 1
d01 2005-08-01_12:00:00 AM: (BP) to send grid arrays (4 MPI calls)
d01 2005-08-01_12:00:00 AM: the 4 grid arrays sent
d01 2005-08-01_12:00:00 AM: (BP) ATM_SENDGRIDS: returning
d01 2005-08-01_12:00:00 AM: (BP) to send SLM
d01 2005-08-01_12:00:00 AM: (BP) ATM_SENDSLM: returning
 AM: ATM_TSTEP_INIT: returning            1           1           1        1061           1        1235           1          59           1          62          -4          66          -4          69     1310335           4
d01 2005-08-01_12:00:00  avg global change (hPa/3h):    1.129926
d01 2005-08-01_12:00:00 Top of Radiation Driver
d01 2005-08-01_12:00:00 CALL cldfra2
d01 2005-08-01_12:00:00 AM: ATM_GETSST entered (PHYS=.true.)
d01 2005-08-01_12:00:00 AM: ATM_GETSST: to send ref. SST grid id = 1
d01 2005-08-01_12:00:00 AM: ATM_GETSST: ref. SST sent grid id = 1
d01 2005-08-01_12:00:00 AM: ATM_GETSST: to receive SST
d01 2005-08-01_12:00:00 AM: ATM_GETSST: SST received
d01 2005-08-01_12:00:00  WITHIN THE GFDL SCHEME, NTSFLG=1 FOR GFDL SLAB  2010 UPGRADS           1
d01 2005-08-01_12:00:00 AM: ATM_DOFLUXES entered
d01 2005-08-01_12:00:00 AM: ATM_DOFLUXES to return
  grid%ntsd=           0 solve_tim=   1.209132     sum_tim=   1.196671
       pdte_tim=     0.001448 pct=  0.121%
       adve_tim=     0.022957 pct=  1.918%
       vtoa_tim=     0.002067 pct=  0.173%
       vadz_tim=     0.003988 pct=  0.333%
       hadz_tim=     0.000164 pct=  0.014%
        eps_tim=     0.001268 pct=  0.106%
       vad2_tim=     0.012090 pct=  1.010%
       had2_tim=     0.029716 pct=  2.483%
  radiation_tim=     0.645970 pct= 53.981%
     rdtemp_tim=     0.000424 pct=  0.035%
      turbl_tim=     0.079792 pct=  6.668%
     cltend_tim=     0.000832 pct=  0.069%
     cucnvc_tim=     0.000000 pct=  0.000%
   gsmdrive_tim=     0.055110 pct=  4.605%
     adjppt_tim=     0.000000 pct=  0.000%
      hdiff_tim=     0.005431 pct=  0.454%
      bocoh_tim=     0.002044 pct=  0.171%
      pfdht_tim=     0.018169 pct=  1.518%
      ddamp_tim=     0.001722 pct=  0.144%
      bocov_tim=     0.000206 pct=  0.017%
  uv_h_to_v_tim=     0.000386 pct=  0.032%
       exch_tim=     0.083923 pct=  7.013%
       diag_tim=     0.000000 pct=  0.000%
    tornado_tim=     0.000146 pct=  0.012%
        sst_tim=     0.228695 pct= 19.111%
       flux_tim=     0.000124 pct=  0.010%
     hifreq_tim=     0.000000 pct=  0.000%
 LAYER= 1 MAX= 0.238624E+03 MIN= 0.231625E+03
          MEAN= 0.234943E+03 STDEV= 0.114055E+01 RMS= 0.234946E+03
 LAYER= 2 MAX= 0.226947E+03 MIN= 0.218385E+03
          MEAN= 0.223647E+03 STDEV= 0.116083E+01 RMS= 0.223650E+03
 LAYER= 3 MAX= 0.220862E+03 MIN= 0.211756E+03
          MEAN= 0.217333E+03 STDEV= 0.164972E+01 RMS= 0.217339E+03
 LAYER= 4 MAX= 0.216427E+03 MIN= 0.206751E+03
          MEAN= 0.212613E+03 STDEV= 0.172066E+01 RMS= 0.212620E+03
 LAYER= 5 MAX= 0.213519E+03 MIN= 0.202665E+03
          MEAN= 0.208711E+03 STDEV= 0.205159E+01 RMS= 0.208721E+03
 LAYER= 6 MAX= 0.211698E+03 MIN= 0.200551E+03
          MEAN= 0.205448E+03 STDEV= 0.219394E+01 RMS= 0.205460E+03
 LAYER= 7 MAX= 0.210516E+03 MIN= 0.197523E+03
          MEAN= 0.203242E+03 STDEV= 0.242247E+01 RMS= 0.203257E+03
 LAYER= 8 MAX= 0.209369E+03 MIN= 0.195106E+03
          MEAN= 0.201673E+03 STDEV= 0.269041E+01 RMS= 0.201691E+03
 LAYER= 9 MAX= 0.208186E+03 MIN= 0.192688E+03
          MEAN= 0.200271E+03 STDEV= 0.294387E+01 RMS= 0.200293E+03
 LAYER=10 MAX= 0.208043E+03 MIN= 0.195755E+03
          MEAN= 0.201192E+03 STDEV= 0.248747E+01 RMS= 0.201208E+03
 LAYER=11 MAX= 0.209862E+03 MIN= 0.194984E+03
          MEAN= 0.202508E+03 STDEV= 0.214112E+01 RMS= 0.202519E+03
 LAYER=12 MAX= 0.211376E+03 MIN= 0.198859E+03
          MEAN= 0.205060E+03 STDEV= 0.175203E+01 RMS= 0.205068E+03
 LAYER=13 MAX= 0.214028E+03 MIN= 0.203069E+03
          MEAN= 0.207923E+03 STDEV= 0.155453E+01 RMS= 0.207929E+03
 LAYER=14 MAX= 0.216727E+03 MIN= 0.207621E+03
          MEAN= 0.211446E+03 STDEV= 0.136489E+01 RMS= 0.211450E+03
 LAYER=15 MAX= 0.219898E+03 MIN= 0.212186E+03
          MEAN= 0.215220E+03 STDEV= 0.115634E+01 RMS= 0.215223E+03
 LAYER=16 MAX= 0.222751E+03 MIN= 0.216549E+03
          MEAN= 0.219432E+03 STDEV= 0.886423E+00 RMS= 0.219434E+03
 LAYER=17 MAX= 0.227732E+03 MIN= 0.222087E+03
          MEAN= 0.223990E+03 STDEV= 0.655760E+00 RMS= 0.223991E+03
 LAYER=18 MAX= 0.233612E+03 MIN= 0.225723E+03
          MEAN= 0.228769E+03 STDEV= 0.670012E+00 RMS= 0.228770E+03
 LAYER=19 MAX= 0.239231E+03 MIN= 0.229559E+03
          MEAN= 0.233715E+03 STDEV= 0.102787E+01 RMS= 0.233717E+03
 LAYER=20 MAX= 0.244627E+03 MIN= 0.233731E+03
          MEAN= 0.238770E+03 STDEV= 0.131591E+01 RMS= 0.238774E+03
 LAYER=21 MAX= 0.249878E+03 MIN= 0.238775E+03
          MEAN= 0.243822E+03 STDEV= 0.139828E+01 RMS= 0.243827E+03
 LAYER=22 MAX= 0.254728E+03 MIN= 0.243835E+03
          MEAN= 0.248766E+03 STDEV= 0.135620E+01 RMS= 0.248769E+03
 LAYER=23 MAX= 0.258789E+03 MIN= 0.248592E+03
          MEAN= 0.253405E+03 STDEV= 0.122918E+01 RMS= 0.253408E+03
 LAYER=24 MAX= 0.262277E+03 MIN= 0.253226E+03
          MEAN= 0.257679E+03 STDEV= 0.109502E+01 RMS= 0.257681E+03
 LAYER=25 MAX= 0.265511E+03 MIN= 0.257784E+03
          MEAN= 0.261657E+03 STDEV= 0.974202E+00 RMS= 0.261658E+03
 LAYER=26 MAX= 0.268578E+03 MIN= 0.261222E+03
          MEAN= 0.265286E+03 STDEV= 0.923080E+00 RMS= 0.265288E+03
 LAYER=27 MAX= 0.271946E+03 MIN= 0.263749E+03
          MEAN= 0.268497E+03 STDEV= 0.971612E+00 RMS= 0.268498E+03
 LAYER=28 MAX= 0.275148E+03 MIN= 0.266105E+03
          MEAN= 0.271372E+03 STDEV= 0.105802E+01 RMS= 0.271374E+03
 LAYER=29 MAX= 0.277217E+03 MIN= 0.268268E+03
          MEAN= 0.273981E+03 STDEV= 0.114185E+01 RMS= 0.273983E+03
 LAYER=30 MAX= 0.279896E+03 MIN= 0.269900E+03
          MEAN= 0.276459E+03 STDEV= 0.118539E+01 RMS= 0.276461E+03
 LAYER=31 MAX= 0.283913E+03 MIN= 0.271398E+03
          MEAN= 0.278803E+03 STDEV= 0.118312E+01 RMS= 0.278806E+03
 LAYER=32 MAX= 0.284932E+03 MIN= 0.272775E+03
          MEAN= 0.280948E+03 STDEV= 0.112314E+01 RMS= 0.280950E+03
 LAYER=33 MAX= 0.286844E+03 MIN= 0.274067E+03
          MEAN= 0.282882E+03 STDEV= 0.104709E+01 RMS= 0.282884E+03
 LAYER=34 MAX= 0.289456E+03 MIN= 0.275334E+03
          MEAN= 0.284606E+03 STDEV= 0.100479E+01 RMS= 0.284608E+03
 LAYER=35 MAX= 0.290214E+03 MIN= 0.276581E+03
          MEAN= 0.286099E+03 STDEV= 0.995987E+00 RMS= 0.286101E+03
 LAYER=36 MAX= 0.291158E+03 MIN= 0.277778E+03
          MEAN= 0.287306E+03 STDEV= 0.103676E+01 RMS= 0.287307E+03
 LAYER=37 MAX= 0.292224E+03 MIN= 0.278895E+03
          MEAN= 0.288211E+03 STDEV= 0.118380E+01 RMS= 0.288214E+03
 LAYER=38 MAX= 0.292865E+03 MIN= 0.279911E+03
          MEAN= 0.288898E+03 STDEV= 0.141059E+01 RMS= 0.288902E+03
 LAYER=39 MAX= 0.293736E+03 MIN= 0.280778E+03
          MEAN= 0.289445E+03 STDEV= 0.167543E+01 RMS= 0.289450E+03
 LAYER=40 MAX= 0.294812E+03 MIN= 0.281535E+03
          MEAN= 0.289974E+03 STDEV= 0.182374E+01 RMS= 0.289980E+03
 LAYER=41 MAX= 0.296038E+03 MIN= 0.282188E+03
          MEAN= 0.290498E+03 STDEV= 0.188067E+01 RMS= 0.290504E+03
 LAYER=42 MAX= 0.297115E+03 MIN= 0.282729E+03
          MEAN= 0.290986E+03 STDEV= 0.186782E+01 RMS= 0.290992E+03
 LAYER=43 MAX= 0.298031E+03 MIN= 0.283210E+03
          MEAN= 0.291451E+03 STDEV= 0.180283E+01 RMS= 0.291457E+03
 LAYER=44 MAX= 0.298771E+03 MIN= 0.283599E+03
          MEAN= 0.291898E+03 STDEV= 0.172380E+01 RMS= 0.291903E+03
 LAYER=45 MAX= 0.299359E+03 MIN= 0.283938E+03
          MEAN= 0.292342E+03 STDEV= 0.164758E+01 RMS= 0.292347E+03
 LAYER=46 MAX= 0.299842E+03 MIN= 0.284230E+03
          MEAN= 0.292792E+03 STDEV= 0.157831E+01 RMS= 0.292796E+03
 LAYER=47 MAX= 0.300286E+03 MIN= 0.284497E+03
          MEAN= 0.293249E+03 STDEV= 0.152068E+01 RMS= 0.293253E+03
 LAYER=48 MAX= 0.300593E+03 MIN= 0.284748E+03
          MEAN= 0.293720E+03 STDEV= 0.147708E+01 RMS= 0.293724E+03
 LAYER=49 MAX= 0.300930E+03 MIN= 0.284980E+03
          MEAN= 0.294200E+03 STDEV= 0.144733E+01 RMS= 0.294203E+03
 LAYER=50 MAX= 0.301062E+03 MIN= 0.285193E+03
          MEAN= 0.294676E+03 STDEV= 0.142818E+01 RMS= 0.294679E+03
 LAYER=51 MAX= 0.301267E+03 MIN= 0.285392E+03
          MEAN= 0.295145E+03 STDEV= 0.141664E+01 RMS= 0.295148E+03
 LAYER=52 MAX= 0.301395E+03 MIN= 0.285578E+03
          MEAN= 0.295607E+03 STDEV= 0.141050E+01 RMS= 0.295610E+03
 LAYER=53 MAX= 0.301553E+03 MIN= 0.285747E+03
          MEAN= 0.296057E+03 STDEV= 0.140808E+01 RMS= 0.296061E+03
 LAYER=54 MAX= 0.301612E+03 MIN= 0.285898E+03
          MEAN= 0.296499E+03 STDEV= 0.140804E+01 RMS= 0.296503E+03
 LAYER=55 MAX= 0.301460E+03 MIN= 0.286035E+03
          MEAN= 0.296935E+03 STDEV= 0.140934E+01 RMS= 0.296939E+03
 LAYER=56 MAX= 0.301225E+03 MIN= 0.286151E+03
          MEAN= 0.297364E+03 STDEV= 0.141145E+01 RMS= 0.297368E+03
 LAYER=57 MAX= 0.300635E+03 MIN= 0.286252E+03
          MEAN= 0.297787E+03 STDEV= 0.141394E+01 RMS= 0.297790E+03
 LAYER=58 MAX= 0.300794E+03 MIN= 0.286355E+03
          MEAN= 0.298204E+03 STDEV= 0.141630E+01 RMS= 0.298207E+03
 LAYER=59 MAX= 0.301229E+03 MIN= 0.286485E+03
          MEAN= 0.298620E+03 STDEV= 0.141777E+01 RMS= 0.298623E+03
 LAYER=60 MAX= 0.301655E+03 MIN= 0.286694E+03
          MEAN= 0.299046E+03 STDEV= 0.141587E+01 RMS= 0.299050E+03
Timing for stats_for_move on domain 1:    0.00000 elapsed seconds
d01 2005-08-01_12:00:00 COMPUTING MSLP OVER THE PARENT DOMAIN
d01 2005-08-01_12:00:00 AM: ATM_SENDLUXES entered with PHYS but not sendSF: returning grid id = 1
d01 2005-08-01_12:00:00 TG extrema: max(wind)=20.98 max(w)=.00 min(w)=.00  max(zhel)=.0000 min(zhel)=.0000
Timing for main: time 2005-08-01_12:00:05 on domain   1:   30.89756 elapsed seconds
 SOLVE_NMM: TIMESTEP IS     1   TIME IS   0.001 HOURS
RESET MAX/MIN RH
d01 2005-08-01_12:00:05 AM: ATM_TSTEP_INIT entered: gid=1 NTSD=    1 NPHS=  6 KDT=    1 PHYS=F
d01 2005-08-01_12:00:05  avg global change (hPa/3h):    1.115941
Timing for stats_for_move on domain 1:    0.00001 elapsed seconds
Timing for main: time 2005-08-01_12:00:10 on domain   1:    0.08717 elapsed seconds
 SOLVE_NMM: TIMESTEP IS     2   TIME IS   0.003 HOURS
d01 2005-08-01_12:00:10 AM: ATM_TSTEP_INIT entered: gid=1 NTSD=    2 NPHS=  6 KDT=    1 PHYS=F
d01 2005-08-01_12:00:10  avg global change (hPa/3h):    1.159322
Timing for stats_for_move on domain 1:    0.00001 elapsed seconds
Timing for main: time 2005-08-01_12:00:15 on domain   1:    0.12961 elapsed seconds
 SOLVE_NMM: TIMESTEP IS     3   TIME IS   0.004 HOURS
d01 2005-08-01_12:00:15 AM: ATM_TSTEP_INIT entered: gid=1 NTSD=    3 NPHS=  6 KDT=    1 PHYS=F
d01 2005-08-01_12:00:15  avg global change (hPa/3h):    1.270044
Timing for stats_for_move on domain 1:    0.00001 elapsed seconds
Timing for main: time 2005-08-01_12:00:20 on domain   1:    0.09719 elapsed seconds
 SOLVE_NMM: TIMESTEP IS     4   TIME IS   0.006 HOURS
d01 2005-08-01_12:00:20 AM: ATM_TSTEP_INIT entered: gid=1 NTSD=    4 NPHS=  6 KDT=    1 PHYS=F
d01 2005-08-01_12:00:20  avg global change (hPa/3h):    1.391463
Timing for stats_for_move on domain 1:    0.00001 elapsed seconds
Timing for main: time 2005-08-01_12:00:25 on domain   1:    0.14480 elapsed seconds
 SOLVE_NMM: TIMESTEP IS     5   TIME IS   0.007 HOURS
d01 2005-08-01_12:00:25 AM: ATM_TSTEP_INIT entered: gid=1 NTSD=    5 NPHS=  6 KDT=    1 PHYS=F
d01 2005-08-01_12:00:25  avg global change (hPa/3h):    1.481241
Timing for stats_for_move on domain 1:    0.00001 elapsed seconds
Timing for main: time 2005-08-01_12:00:30 on domain   1:    0.09758 elapsed seconds
 SOLVE_NMM: TIMESTEP IS     6   TIME IS   0.008 HOURS
d01 2005-08-01_12:00:30 AM: ATM_TSTEP_INIT entered: gid=1 NTSD=    6 NPHS=  6 KDT=    2 PHYS=T
d01 2005-08-01_12:00:30 AM: ATM_TSTEP_INIT working: grid id = 1; KDT, n_ts:        2       2
d01 2005-08-01_12:00:30 AM: ATM_RECVdtc: AM time step dta=  3.000000000000E+01
d01 2005-08-01_12:00:30 AM: ratio of C/AM time steps:  6
 AM: ATM_TSTEP_INIT: returning            1           2           1        1061           1        1235           1          59           1          62          -4          66          -4          69     1310335           4
d01 2005-08-01_12:00:30  avg global change (hPa/3h):    1.543778
d01 2005-08-01_12:00:30 AM: ATM_GETSST entered (PHYS=.true.)
d01 2005-08-01_12:00:30  WITHIN THE GFDL SCHEME, NTSFLG=1 FOR GFDL SLAB  2010 UPGRADS           1
d01 2005-08-01_12:00:30 AM: ATM_DOFLUXES entered
d01 2005-08-01_12:00:30 AM: ATM_DOFLUXES to return
Timing for stats_for_move on domain 1:    0.00000 elapsed seconds
d01 2005-08-01_12:00:30 AM: ATM_SENDLUXES entered with PHYS but not sendSF: returning grid id = 1
Timing for main: time 2005-08-01_12:00:35 on domain   1:    0.30865 elapsed seconds
 SOLVE_NMM: TIMESTEP IS     7   TIME IS   0.010 HOURS
d01 2005-08-01_12:00:35 AM: ATM_TSTEP_INIT entered: gid=1 NTSD=    7 NPHS=  6 KDT=    2 PHYS=F
d01 2005-08-01_12:00:35  avg global change (hPa/3h):    1.537327
Timing for stats_for_move on domain 1:    0.00001 elapsed seconds
Timing for main: time 2005-08-01_12:00:40 on domain   1:    0.09733 elapsed seconds
 SOLVE_NMM: TIMESTEP IS     8   TIME IS   0.011 HOURS
d01 2005-08-01_12:00:40 AM: ATM_TSTEP_INIT entered: gid=1 NTSD=    8 NPHS=  6 KDT=    2 PHYS=F
d01 2005-08-01_12:00:40  avg global change (hPa/3h):    1.538154
Timing for stats_for_move on domain 1:    0.00001 elapsed seconds
Timing for main: time 2005-08-01_12:00:45 on domain   1:    0.61333 elapsed seconds
 SOLVE_NMM: TIMESTEP IS     9   TIME IS   0.013 HOURS
d01 2005-08-01_12:00:45 AM: ATM_TSTEP_INIT entered: gid=1 NTSD=    9 NPHS=  6 KDT=    2 PHYS=F
d01 2005-08-01_12:00:45  avg global change (hPa/3h):    1.534142
Timing for stats_for_move on domain 1:    0.00001 elapsed seconds
Timing for main: time 2005-08-01_12:00:50 on domain   1:    1.08873 elapsed seconds
 SOLVE_NMM: TIMESTEP IS    10   TIME IS   0.014 HOURS
d01 2005-08-01_12:00:50 AM: ATM_TSTEP_INIT entered: gid=1 NTSD=   10 NPHS=  6 KDT=    2 PHYS=F
d01 2005-08-01_12:00:50  avg global change (hPa/3h):    1.531414
Timing for stats_for_move on domain 1:    0.00001 elapsed seconds
Timing for main: time 2005-08-01_12:00:55 on domain   1:    0.77810 elapsed seconds
 SOLVE_NMM: TIMESTEP IS    11   TIME IS   0.015 HOURS
d01 2005-08-01_12:00:55 AM: ATM_TSTEP_INIT entered: gid=1 NTSD=   11 NPHS=  6 KDT=    2 PHYS=F
d01 2005-08-01_12:00:55  avg global change (hPa/3h):    1.531326
Timing for stats_for_move on domain 1:    0.00000 elapsed seconds
Timing for main: time 2005-08-01_12:01:00 on domain   1:    0.20931 elapsed seconds
 SOLVE_NMM: TIMESTEP IS    12   TIME IS   0.017 HOURS
d01 2005-08-01_12:01:00 AM: ATM_TSTEP_INIT entered: gid=1 NTSD=   12 NPHS=  6 KDT=    3 PHYS=T
d01 2005-08-01_12:01:00 AM: ATM_TSTEP_INIT working: grid id = 1; KDT, n_ts:        3       3
d01 2005-08-01_12:01:00 AM: ATM_RECVdtc: AM time step dta=  3.000000000000E+01
d01 2005-08-01_12:01:00 AM: ratio of C/AM time steps:  6
 AM: ATM_TSTEP_INIT: returning            1           3           1        1061           1        1235           1          59           1          62          -4          66          -4          69     1310335           4
d01 2005-08-01_12:01:00  avg global change (hPa/3h):    1.526306
d01 2005-08-01_12:01:00 AM: ATM_GETSST entered (PHYS=.true.)
d01 2005-08-01_12:01:00  WITHIN THE GFDL SCHEME, NTSFLG=1 FOR GFDL SLAB  2010 UPGRADS           1
d01 2005-08-01_12:01:00 AM: ATM_DOFLUXES entered
d01 2005-08-01_12:01:00 AM: ATM_DOFLUXES to return
Timing for stats_for_move on domain 1:    0.00000 elapsed seconds
d01 2005-08-01_12:01:00 AM: ATM_SENDLUXES entered with PHYS but not sendSF: returning grid id = 1
d01 2005-08-01_12:01:00 TG extrema: max(wind)=20.98 max(w)=11.01 min(w)=-4.29  max(zhel)=.0132 min(zhel)=-.0124
Timing for main: time 2005-08-01_12:01:05 on domain   1:    0.31532 elapsed seconds
 SOLVE_NMM: TIMESTEP IS    13   TIME IS   0.018 HOURS
d01 2005-08-01_12:01:05 AM: ATM_TSTEP_INIT entered: gid=1 NTSD=   13 NPHS=  6 KDT=    3 PHYS=F
d01 2005-08-01_12:01:05  avg global change (hPa/3h):    1.525133
Timing for stats_for_move on domain 1:    0.00002 elapsed seconds
Timing for main: time 2005-08-01_12:01:10 on domain   1:    0.09652 elapsed seconds
 SOLVE_NMM: TIMESTEP IS    14   TIME IS   0.019 HOURS
d01 2005-08-01_12:01:10 AM: ATM_TSTEP_INIT entered: gid=1 NTSD=   14 NPHS=  6 KDT=    3 PHYS=F
d01 2005-08-01_12:01:10  avg global change (hPa/3h):    1.530390
Timing for stats_for_move on domain 1:    0.00000 elapsed seconds
Timing for main: time 2005-08-01_12:01:15 on domain   1:    0.13645 elapsed seconds
 SOLVE_NMM: TIMESTEP IS    15   TIME IS   0.021 HOURS
d01 2005-08-01_12:01:15 AM: ATM_TSTEP_INIT entered: gid=1 NTSD=   15 NPHS=  6 KDT=    3 PHYS=F
d01 2005-08-01_12:01:15  avg global change (hPa/3h):    1.517677
Timing for stats_for_move on domain 1:    0.00001 elapsed seconds
Timing for main: time 2005-08-01_12:01:20 on domain   1:    0.09663 elapsed seconds
 SOLVE_NMM: TIMESTEP IS    16   TIME IS   0.022 HOURS
d01 2005-08-01_12:01:20 AM: ATM_TSTEP_INIT entered: gid=1 NTSD=   16 NPHS=  6 KDT=    3 PHYS=F
d01 2005-08-01_12:01:20  avg global change (hPa/3h):    1.511393
Timing for stats_for_move on domain 1:    0.00000 elapsed seconds
Timing for main: time 2005-08-01_12:01:25 on domain   1:    0.13667 elapsed seconds
 SOLVE_NMM: TIMESTEP IS    17   TIME IS   0.024 HOURS
d01 2005-08-01_12:01:25 AM: ATM_TSTEP_INIT entered: gid=1 NTSD=   17 NPHS=  6 KDT=    3 PHYS=F
d01 2005-08-01_12:01:25  avg global change (hPa/3h):    1.507153
Timing for stats_for_move on domain 1:    0.00002 elapsed seconds
Timing for main: time 2005-08-01_12:01:30 on domain   1:    0.09613 elapsed seconds
 SOLVE_NMM: TIMESTEP IS    18   TIME IS   0.025 HOURS
d01 2005-08-01_12:01:30 AM: ATM_TSTEP_INIT entered: gid=1 NTSD=   18 NPHS=  6 KDT=    4 PHYS=T
d01 2005-08-01_12:01:30 AM: ATM_TSTEP_INIT working: grid id = 1; KDT, n_ts:        4       4
d01 2005-08-01_12:01:30 AM: ATM_RECVdtc: AM time step dta=  3.000000000000E+01
d01 2005-08-01_12:01:30 AM: ratio of C/AM time steps:  6
 AM: ATM_TSTEP_INIT: returning            1           4           1        1061           1        1235           1          59           1          62          -4          66          -4          69     1310335           4
d01 2005-08-01_12:01:30  avg global change (hPa/3h):    1.498641
d01 2005-08-01_12:01:30 AM: ATM_GETSST entered (PHYS=.true.)
d01 2005-08-01_12:01:30  WITHIN THE GFDL SCHEME, NTSFLG=1 FOR GFDL SLAB  2010 UPGRADS           1
d01 2005-08-01_12:01:30 AM: ATM_DOFLUXES entered
d01 2005-08-01_12:01:30 AM: ATM_DOFLUXES to return
Timing for stats_for_move on domain 1:    0.00000 elapsed seconds
d01 2005-08-01_12:01:30 AM: ATM_SENDLUXES entered with PHYS but not sendSF: returning grid id = 1
Timing for main: time 2005-08-01_12:01:35 on domain   1:    0.30854 elapsed seconds
 SOLVE_NMM: TIMESTEP IS    19   TIME IS   0.026 HOURS
d01 2005-08-01_12:01:35 AM: ATM_TSTEP_INIT entered: gid=1 NTSD=   19 NPHS=  6 KDT=    4 PHYS=F
d01 2005-08-01_12:01:35  avg global change (hPa/3h):    1.496225
Timing for stats_for_move on domain 1:    0.00000 elapsed seconds
Timing for main: time 2005-08-01_12:01:40 on domain   1:    0.09677 elapsed seconds
 SOLVE_NMM: TIMESTEP IS    20   TIME IS   0.028 HOURS
d01 2005-08-01_12:01:40 AM: ATM_TSTEP_INIT entered: gid=1 NTSD=   20 NPHS=  6 KDT=    4 PHYS=F
d01 2005-08-01_12:01:40  avg global change (hPa/3h):    1.498083
Timing for stats_for_move on domain 1:    0.00001 elapsed seconds
Timing for main: time 2005-08-01_12:01:45 on domain   1:    0.13625 elapsed seconds
 SOLVE_NMM: TIMESTEP IS    21   TIME IS   0.029 HOURS
d01 2005-08-01_12:01:45 AM: ATM_TSTEP_INIT entered: gid=1 NTSD=   21 NPHS=  6 KDT=    4 PHYS=F
d01 2005-08-01_12:01:45  avg global change (hPa/3h):    1.486327
Timing for stats_for_move on domain 1:    0.00000 elapsed seconds
Timing for main: time 2005-08-01_12:01:50 on domain   1:    0.09680 elapsed seconds
 SOLVE_NMM: TIMESTEP IS    22   TIME IS   0.031 HOURS
d01 2005-08-01_12:01:50 AM: ATM_TSTEP_INIT entered: gid=1 NTSD=   22 NPHS=  6 KDT=    4 PHYS=F
d01 2005-08-01_12:01:50  avg global change (hPa/3h):    1.484265
Timing for stats_for_move on domain 1:    0.00001 elapsed seconds
Timing for main: time 2005-08-01_12:01:55 on domain   1:    0.13763 elapsed seconds
 SOLVE_NMM: TIMESTEP IS    23   TIME IS   0.032 HOURS
d01 2005-08-01_12:01:55 AM: ATM_TSTEP_INIT entered: gid=1 NTSD=   23 NPHS=  6 KDT=    4 PHYS=F
d01 2005-08-01_12:01:55  avg global change (hPa/3h):    1.481485
Timing for stats_for_move on domain 1:    0.00000 elapsed seconds
Timing for main: time 2005-08-01_12:02:00 on domain   1:    0.09561 elapsed seconds
 SOLVE_NMM: TIMESTEP IS    24   TIME IS   0.033 HOURS
d01 2005-08-01_12:02:00 AM: ATM_TSTEP_INIT entered: gid=1 NTSD=   24 NPHS=  6 KDT=    5 PHYS=T
d01 2005-08-01_12:02:00 AM: ATM_TSTEP_INIT working: grid id = 1; KDT, n_ts:        5       5
d01 2005-08-01_12:02:00 AM: ATM_RECVdtc: AM time step dta=  3.000000000000E+01
d01 2005-08-01_12:02:00 AM: ratio of C/AM time steps:  6
 AM: ATM_TSTEP_INIT: returning            1           5           1        1061           1        1235           1          59           1          62          -4          66          -4          69     1310335           4
d01 2005-08-01_12:02:00  avg global change (hPa/3h):    1.473032
d01 2005-08-01_12:02:00 AM: ATM_GETSST entered (PHYS=.true.)
d01 2005-08-01_12:02:00  WITHIN THE GFDL SCHEME, NTSFLG=1 FOR GFDL SLAB  2010 UPGRADS           1
d01 2005-08-01_12:02:00 AM: ATM_DOFLUXES entered
d01 2005-08-01_12:02:00 AM: ATM_DOFLUXES to return
Timing for stats_for_move on domain 1:    0.00000 elapsed seconds
d01 2005-08-01_12:02:00 AM: ATM_SENDLUXES entered with PHYS but not sendSF: returning grid id = 1
d01 2005-08-01_12:02:00 TG extrema: max(wind)=20.98 max(w)=11.01 min(w)=-5.03  max(zhel)=.0132 min(zhel)=-.0124
Timing for main: time 2005-08-01_12:02:05 on domain   1:    0.31704 elapsed seconds
 SOLVE_NMM: TIMESTEP IS    25   TIME IS   0.035 HOURS
d01 2005-08-01_12:02:05 AM: ATM_TSTEP_INIT entered: gid=1 NTSD=   25 NPHS=  6 KDT=    5 PHYS=F
d01 2005-08-01_12:02:05  avg global change (hPa/3h):    1.468440
Timing for stats_for_move on domain 1:    0.00001 elapsed seconds
Timing for main: time 2005-08-01_12:02:10 on domain   1:    0.09567 elapsed seconds
 SOLVE_NMM: TIMESTEP IS    26   TIME IS   0.036 HOURS
d01 2005-08-01_12:02:10 AM: ATM_TSTEP_INIT entered: gid=1 NTSD=   26 NPHS=  6 KDT=    5 PHYS=F
d01 2005-08-01_12:02:10  avg global change (hPa/3h):    1.469533
Timing for stats_for_move on domain 1:    0.00001 elapsed seconds
Timing for main: time 2005-08-01_12:02:15 on domain   1:    0.13752 elapsed seconds
 SOLVE_NMM: TIMESTEP IS    27   TIME IS   0.038 HOURS
d01 2005-08-01_12:02:15 AM: ATM_TSTEP_INIT entered: gid=1 NTSD=   27 NPHS=  6 KDT=    5 PHYS=F
d01 2005-08-01_12:02:15  avg global change (hPa/3h):    1.457589
Timing for stats_for_move on domain 1:    0.00001 elapsed seconds
Timing for main: time 2005-08-01_12:02:20 on domain   1:    0.09718 elapsed seconds
 SOLVE_NMM: TIMESTEP IS    28   TIME IS   0.039 HOURS
d01 2005-08-01_12:02:20 AM: ATM_TSTEP_INIT entered: gid=1 NTSD=   28 NPHS=  6 KDT=    5 PHYS=F
d01 2005-08-01_12:02:20  avg global change (hPa/3h):    1.452455
Timing for stats_for_move on domain 1:    0.00001 elapsed seconds
Timing for main: time 2005-08-01_12:02:25 on domain   1:    0.13709 elapsed seconds
 SOLVE_NMM: TIMESTEP IS    29   TIME IS   0.040 HOURS
d01 2005-08-01_12:02:25 AM: ATM_TSTEP_INIT entered: gid=1 NTSD=   29 NPHS=  6 KDT=    5 PHYS=F
d01 2005-08-01_12:02:25  avg global change (hPa/3h):    1.445278
Timing for stats_for_move on domain 1:    0.00000 elapsed seconds
Timing for main: time 2005-08-01_12:02:30 on domain   1:    0.10347 elapsed seconds
 SOLVE_NMM: TIMESTEP IS    30   TIME IS   0.042 HOURS
d01 2005-08-01_12:02:30 AM: ATM_TSTEP_INIT entered: gid=1 NTSD=   30 NPHS=  6 KDT=    6 PHYS=T
d01 2005-08-01_12:02:30 AM: ATM_TSTEP_INIT working: grid id = 1; KDT, n_ts:        6       6
d01 2005-08-01_12:02:30 AM: ATM_RECVdtc: AM time step dta=  3.000000000000E+01
d01 2005-08-01_12:02:30 AM: ratio of C/AM time steps:  6
 AM: ATM_TSTEP_INIT: returning            1           6           1        1061           1        1235           1          59           1          62          -4          66          -4          69     1310335           4
d01 2005-08-01_12:02:30  avg global change (hPa/3h):    1.432033
d01 2005-08-01_12:02:30 AM: ATM_GETSST entered (PHYS=.true.)
d01 2005-08-01_12:02:30  WITHIN THE GFDL SCHEME, NTSFLG=1 FOR GFDL SLAB  2010 UPGRADS           1
d01 2005-08-01_12:02:30 AM: ATM_DOFLUXES entered
d01 2005-08-01_12:02:30 AM: ATM_DOFLUXES to return
Timing for stats_for_move on domain 1:    0.00000 elapsed seconds
d01 2005-08-01_12:02:30 AM: In ATM_SENDLUXES grid id = 1
d01 2005-08-01_12:02:30 AM: ATM_SENDFLUXES to return grid id = 1
Timing for main: time 2005-08-01_12:02:35 on domain   1:    0.34189 elapsed seconds
 SOLVE_NMM: TIMESTEP IS    31   TIME IS   0.043 HOURS
d01 2005-08-01_12:02:35 AM: ATM_TSTEP_INIT entered: gid=1 NTSD=   31 NPHS=  6 KDT=    6 PHYS=F
d01 2005-08-01_12:02:35  avg global change (hPa/3h):    1.423413
Timing for stats_for_move on domain 1:    0.00001 elapsed seconds
Timing for main: time 2005-08-01_12:02:40 on domain   1:    0.09732 elapsed seconds
 SOLVE_NMM: TIMESTEP IS    32   TIME IS   0.044 HOURS
d01 2005-08-01_12:02:40 AM: ATM_TSTEP_INIT entered: gid=1 NTSD=   32 NPHS=  6 KDT=    6 PHYS=F
d01 2005-08-01_12:02:40  avg global change (hPa/3h):    1.423085
Timing for stats_for_move on domain 1:    0.00000 elapsed seconds
Timing for main: time 2005-08-01_12:02:45 on domain   1:    0.13777 elapsed seconds
 SOLVE_NMM: TIMESTEP IS    33   TIME IS   0.046 HOURS
d01 2005-08-01_12:02:45 AM: ATM_TSTEP_INIT entered: gid=1 NTSD=   33 NPHS=  6 KDT=    6 PHYS=F
d01 2005-08-01_12:02:45  avg global change (hPa/3h):    1.410763
Timing for stats_for_move on domain 1:    0.00000 elapsed seconds
Timing for main: time 2005-08-01_12:02:50 on domain   1:    0.09685 elapsed seconds
 SOLVE_NMM: TIMESTEP IS    34   TIME IS   0.047 HOURS
d01 2005-08-01_12:02:50 AM: ATM_TSTEP_INIT entered: gid=1 NTSD=   34 NPHS=  6 KDT=    6 PHYS=F
d01 2005-08-01_12:02:50  avg global change (hPa/3h):    1.407673
Timing for stats_for_move on domain 1:    0.00001 elapsed seconds
Timing for main: time 2005-08-01_12:02:55 on domain   1:    0.13692 elapsed seconds
 SOLVE_NMM: TIMESTEP IS    35   TIME IS   0.049 HOURS
d01 2005-08-01_12:02:55 AM: ATM_TSTEP_INIT entered: gid=1 NTSD=   35 NPHS=  6 KDT=    6 PHYS=F
d01 2005-08-01_12:02:55  avg global change (hPa/3h):    1.404028
Timing for stats_for_move on domain 1:    0.00001 elapsed seconds
Timing for main: time 2005-08-01_12:03:00 on domain   1:    0.09566 elapsed seconds
 SOLVE_NMM: TIMESTEP IS    36   TIME IS   0.050 HOURS
d01 2005-08-01_12:03:00 AM: ATM_TSTEP_INIT entered: gid=1 NTSD=   36 NPHS=  6 KDT=    7 PHYS=T
d01 2005-08-01_12:03:00 AM: ATM_TSTEP_INIT working: grid id = 1; KDT, n_ts:        7       7
d01 2005-08-01_12:03:00 AM: ATM_RECVdtc: AM time step dta=  3.000000000000E+01
d01 2005-08-01_12:03:00 AM: ratio of C/AM time steps:  6
 AM: ATM_TSTEP_INIT: returning            1           7           1        1061           1        1235           1          59           1          62          -4          66          -4          69     1310335           4
d01 2005-08-01_12:03:00  avg global change (hPa/3h):    1.394730
d01 2005-08-01_12:03:00 AM: ATM_GETSST entered (PHYS=.true.)
d01 2005-08-01_12:03:00 AM: ATM_GETSST: to receive SST
d01 2005-08-01_12:03:00 AM: ATM_GETSST: SST received
d01 2005-08-01_12:03:00  WITHIN THE GFDL SCHEME, NTSFLG=1 FOR GFDL SLAB  2010 UPGRADS           1
d01 2005-08-01_12:03:00 AM: ATM_DOFLUXES entered
d01 2005-08-01_12:03:00 AM: ATM_DOFLUXES to return
Timing for stats_for_move on domain 1:    0.00000 elapsed seconds
d01 2005-08-01_12:03:00 AM: ATM_SENDLUXES entered with PHYS but not sendSF: returning grid id = 1
d01 2005-08-01_12:03:00 TG extrema: max(wind)=20.98 max(w)=11.01 min(w)=-5.29  max(zhel)=.0137 min(zhel)=-.0124
Timing for main: time 2005-08-01_12:03:05 on domain   1:    0.31991 elapsed seconds
 SOLVE_NMM: TIMESTEP IS    37   TIME IS   0.051 HOURS
d01 2005-08-01_12:03:05 AM: ATM_TSTEP_INIT entered: gid=1 NTSD=   37 NPHS=  6 KDT=    7 PHYS=F
d01 2005-08-01_12:03:05  avg global change (hPa/3h):    1.388897
Timing for stats_for_move on domain 1:    0.00001 elapsed seconds
Timing for main: time 2005-08-01_12:03:10 on domain   1:    0.09665 elapsed seconds
 SOLVE_NMM: TIMESTEP IS    38   TIME IS   0.053 HOURS
d01 2005-08-01_12:03:10 AM: ATM_TSTEP_INIT entered: gid=1 NTSD=   38 NPHS=  6 KDT=    7 PHYS=F
d01 2005-08-01_12:03:10  avg global change (hPa/3h):    1.391709
Timing for stats_for_move on domain 1:    0.00000 elapsed seconds
Timing for main: time 2005-08-01_12:03:15 on domain   1:    0.13715 elapsed seconds
 SOLVE_NMM: TIMESTEP IS    39   TIME IS   0.054 HOURS
d01 2005-08-01_12:03:15 AM: ATM_TSTEP_INIT entered: gid=1 NTSD=   39 NPHS=  6 KDT=    7 PHYS=F
d01 2005-08-01_12:03:15  avg global change (hPa/3h):    1.382018
Timing for stats_for_move on domain 1:    0.00001 elapsed seconds
Timing for main: time 2005-08-01_12:03:20 on domain   1:    0.09736 elapsed seconds
 SOLVE_NMM: TIMESTEP IS    40   TIME IS   0.056 HOURS
d01 2005-08-01_12:03:20 AM: ATM_TSTEP_INIT entered: gid=1 NTSD=   40 NPHS=  6 KDT=    7 PHYS=F
d01 2005-08-01_12:03:20  avg global change (hPa/3h):    1.380313
Timing for stats_for_move on domain 1:    0.00001 elapsed seconds
Timing for main: time 2005-08-01_12:03:25 on domain   1:    0.13609 elapsed seconds
 SOLVE_NMM: TIMESTEP IS    41   TIME IS   0.057 HOURS
d01 2005-08-01_12:03:25 AM: ATM_TSTEP_INIT entered: gid=1 NTSD=   41 NPHS=  6 KDT=    7 PHYS=F
d01 2005-08-01_12:03:25  avg global change (hPa/3h):    1.378116
Timing for stats_for_move on domain 1:    0.00001 elapsed seconds
Timing for main: time 2005-08-01_12:03:30 on domain   1:    0.09539 elapsed seconds
 SOLVE_NMM: TIMESTEP IS    42   TIME IS   0.058 HOURS
d01 2005-08-01_12:03:30 AM: ATM_TSTEP_INIT entered: gid=1 NTSD=   42 NPHS=  6 KDT=    8 PHYS=T
d01 2005-08-01_12:03:30 AM: ATM_TSTEP_INIT working: grid id = 1; KDT, n_ts:        8       8
d01 2005-08-01_12:03:30 AM: ATM_RECVdtc: AM time step dta=  3.000000000000E+01
d01 2005-08-01_12:03:30 AM: ratio of C/AM time steps:  6
 AM: ATM_TSTEP_INIT: returning            1           8           1        1061           1        1235           1          59           1          62          -4          66          -4          69     1310335           4
d01 2005-08-01_12:03:30  avg global change (hPa/3h):    1.370201
d01 2005-08-01_12:03:30 AM: ATM_GETSST entered (PHYS=.true.)
d01 2005-08-01_12:03:30  WITHIN THE GFDL SCHEME, NTSFLG=1 FOR GFDL SLAB  2010 UPGRADS           1
d01 2005-08-01_12:03:30 AM: ATM_DOFLUXES entered
d01 2005-08-01_12:03:30 AM: ATM_DOFLUXES to return
Timing for stats_for_move on domain 1:    0.00000 elapsed seconds
d01 2005-08-01_12:03:30 AM: ATM_SENDLUXES entered with PHYS but not sendSF: returning grid id = 1
Timing for main: time 2005-08-01_12:03:35 on domain   1:    0.31067 elapsed seconds
 SOLVE_NMM: TIMESTEP IS    43   TIME IS   0.060 HOURS
d01 2005-08-01_12:03:35 AM: ATM_TSTEP_INIT entered: gid=1 NTSD=   43 NPHS=  6 KDT=    8 PHYS=F
d01 2005-08-01_12:03:35  avg global change (hPa/3h):    1.364751
Timing for stats_for_move on domain 1:    0.00001 elapsed seconds
Timing for main: time 2005-08-01_12:03:40 on domain   1:    0.10448 elapsed seconds
 SOLVE_NMM: TIMESTEP IS    44   TIME IS   0.061 HOURS
d01 2005-08-01_12:03:40 AM: ATM_TSTEP_INIT entered: gid=1 NTSD=   44 NPHS=  6 KDT=    8 PHYS=F
d01 2005-08-01_12:03:40  avg global change (hPa/3h):    1.368541
Timing for stats_for_move on domain 1:    0.00000 elapsed seconds
Timing for main: time 2005-08-01_12:03:45 on domain   1:    0.14505 elapsed seconds
 SOLVE_NMM: TIMESTEP IS    45   TIME IS   0.062 HOURS
d01 2005-08-01_12:03:45 AM: ATM_TSTEP_INIT entered: gid=1 NTSD=   45 NPHS=  6 KDT=    8 PHYS=F
d01 2005-08-01_12:03:45  avg global change (hPa/3h):    1.359379
Timing for stats_for_move on domain 1:    0.00000 elapsed seconds
Timing for main: time 2005-08-01_12:03:50 on domain   1:    0.09664 elapsed seconds
 SOLVE_NMM: TIMESTEP IS    46   TIME IS   0.064 HOURS
d01 2005-08-01_12:03:50 AM: ATM_TSTEP_INIT entered: gid=1 NTSD=   46 NPHS=  6 KDT=    8 PHYS=F
d01 2005-08-01_12:03:50  avg global change (hPa/3h):    1.358719
Timing for stats_for_move on domain 1:    0.00001 elapsed seconds
Timing for main: time 2005-08-01_12:03:55 on domain   1:    0.13643 elapsed seconds
 SOLVE_NMM: TIMESTEP IS    47   TIME IS   0.065 HOURS
d01 2005-08-01_12:03:55 AM: ATM_TSTEP_INIT entered: gid=1 NTSD=   47 NPHS=  6 KDT=    8 PHYS=F
d01 2005-08-01_12:03:55  avg global change (hPa/3h):    1.358270
Timing for stats_for_move on domain 1:    0.00000 elapsed seconds
Timing for main: time 2005-08-01_12:04:00 on domain   1:    0.09751 elapsed seconds
 SOLVE_NMM: TIMESTEP IS    48   TIME IS   0.067 HOURS
d01 2005-08-01_12:04:00 AM: ATM_TSTEP_INIT entered: gid=1 NTSD=   48 NPHS=  6 KDT=    9 PHYS=T
d01 2005-08-01_12:04:00 AM: ATM_TSTEP_INIT working: grid id = 1; KDT, n_ts:        9       9
d01 2005-08-01_12:04:00 AM: ATM_RECVdtc: AM time step dta=  3.000000000000E+01
d01 2005-08-01_12:04:00 AM: ratio of C/AM time steps:  6
 AM: ATM_TSTEP_INIT: returning            1           9           1        1061           1        1235           1          59           1          62          -4          66          -4          69     1310335           4
d01 2005-08-01_12:04:00  avg global change (hPa/3h):    1.351781
d01 2005-08-01_12:04:00 AM: ATM_GETSST entered (PHYS=.true.)
d01 2005-08-01_12:04:00  WITHIN THE GFDL SCHEME, NTSFLG=1 FOR GFDL SLAB  2010 UPGRADS           1
d01 2005-08-01_12:04:00 AM: ATM_DOFLUXES entered
d01 2005-08-01_12:04:00 AM: ATM_DOFLUXES to return
Timing for stats_for_move on domain 1:    0.00000 elapsed seconds
d01 2005-08-01_12:04:00 AM: ATM_SENDLUXES entered with PHYS but not sendSF: returning grid id = 1
d01 2005-08-01_12:04:00 TG extrema: max(wind)=20.98 max(w)=11.27 min(w)=-5.29  max(zhel)=.0144 min(zhel)=-.0124
Timing for main: time 2005-08-01_12:04:05 on domain   1:    0.31843 elapsed seconds
 SOLVE_NMM: TIMESTEP IS    49   TIME IS   0.068 HOURS
d01 2005-08-01_12:04:05 AM: ATM_TSTEP_INIT entered: gid=1 NTSD=   49 NPHS=  6 KDT=    9 PHYS=F
d01 2005-08-01_12:04:05  avg global change (hPa/3h):    1.348474
Timing for stats_for_move on domain 1:    0.00001 elapsed seconds
Timing for main: time 2005-08-01_12:04:10 on domain   1:    0.09579 elapsed seconds
 SOLVE_NMM: TIMESTEP IS    50   TIME IS   0.069 HOURS
d01 2005-08-01_12:04:10 AM: ATM_TSTEP_INIT entered: gid=1 NTSD=   50 NPHS=  6 KDT=    9 PHYS=F
d01 2005-08-01_12:04:10  avg global change (hPa/3h):    1.353923
Timing for stats_for_move on domain 1:    0.00001 elapsed seconds
Timing for main: time 2005-08-01_12:04:15 on domain   1:    0.14748 elapsed seconds
 SOLVE_NMM: TIMESTEP IS    51   TIME IS   0.071 HOURS
d01 2005-08-01_12:04:15 AM: ATM_TSTEP_INIT entered: gid=1 NTSD=   51 NPHS=  6 KDT=    9 PHYS=F
d01 2005-08-01_12:04:15  avg global change (hPa/3h):    1.347891
Timing for stats_for_move on domain 1:    0.00001 elapsed seconds
Timing for main: time 2005-08-01_12:04:20 on domain   1:    0.09614 elapsed seconds
 SOLVE_NMM: TIMESTEP IS    52   TIME IS   0.072 HOURS
d01 2005-08-01_12:04:20 AM: ATM_TSTEP_INIT entered: gid=1 NTSD=   52 NPHS=  6 KDT=    9 PHYS=F
d01 2005-08-01_12:04:20  avg global change (hPa/3h):    1.349427
Timing for stats_for_move on domain 1:    0.00000 elapsed seconds
Timing for main: time 2005-08-01_12:04:25 on domain   1:    0.13714 elapsed seconds
 SOLVE_NMM: TIMESTEP IS    53   TIME IS   0.074 HOURS
d01 2005-08-01_12:04:25 AM: ATM_TSTEP_INIT entered: gid=1 NTSD=   53 NPHS=  6 KDT=    9 PHYS=F
d01 2005-08-01_12:04:25  avg global change (hPa/3h):    1.350276
Timing for stats_for_move on domain 1:    0.00001 elapsed seconds
Timing for main: time 2005-08-01_12:04:30 on domain   1:    0.09597 elapsed seconds
 SOLVE_NMM: TIMESTEP IS    54   TIME IS   0.075 HOURS
d01 2005-08-01_12:04:30 AM: ATM_TSTEP_INIT entered: gid=1 NTSD=   54 NPHS=  6 KDT=   10 PHYS=T
d01 2005-08-01_12:04:30 AM: ATM_TSTEP_INIT working: grid id = 1; KDT, n_ts:       10      10
d01 2005-08-01_12:04:30 AM: ATM_RECVdtc: AM time step dta=  3.000000000000E+01
d01 2005-08-01_12:04:30 AM: ratio of C/AM time steps:  6
 AM: ATM_TSTEP_INIT: returning            1          10           1        1061           1        1235           1          59           1          62          -4          66          -4          69     1310335           4
d01 2005-08-01_12:04:30  avg global change (hPa/3h):    1.344133
d01 2005-08-01_12:04:30 AM: ATM_GETSST entered (PHYS=.true.)
d01 2005-08-01_12:04:30  WITHIN THE GFDL SCHEME, NTSFLG=1 FOR GFDL SLAB  2010 UPGRADS           1
d01 2005-08-01_12:04:30 AM: ATM_DOFLUXES entered
d01 2005-08-01_12:04:30 AM: ATM_DOFLUXES to return
Timing for stats_for_move on domain 1:    0.00000 elapsed seconds
d01 2005-08-01_12:04:30 AM: ATM_SENDLUXES entered with PHYS but not sendSF: returning grid id = 1
Timing for main: time 2005-08-01_12:04:35 on domain   1:    0.31071 elapsed seconds
 SOLVE_NMM: TIMESTEP IS    55   TIME IS   0.076 HOURS
d01 2005-08-01_12:04:35 AM: ATM_TSTEP_INIT entered: gid=1 NTSD=   55 NPHS=  6 KDT=   10 PHYS=F
d01 2005-08-01_12:04:35  avg global change (hPa/3h):    1.339252
Timing for stats_for_move on domain 1:    0.00000 elapsed seconds
Timing for main: time 2005-08-01_12:04:40 on domain   1:    0.09688 elapsed seconds
 SOLVE_NMM: TIMESTEP IS    56   TIME IS   0.078 HOURS
d01 2005-08-01_12:04:40 AM: ATM_TSTEP_INIT entered: gid=1 NTSD=   56 NPHS=  6 KDT=   10 PHYS=F
d01 2005-08-01_12:04:40  avg global change (hPa/3h):    1.343610
Timing for stats_for_move on domain 1:    0.00000 elapsed seconds
Timing for main: time 2005-08-01_12:04:45 on domain   1:    0.14837 elapsed seconds
 SOLVE_NMM: TIMESTEP IS    57   TIME IS   0.079 HOURS
d01 2005-08-01_12:04:45 AM: ATM_TSTEP_INIT entered: gid=1 NTSD=   57 NPHS=  6 KDT=   10 PHYS=F
d01 2005-08-01_12:04:45  avg global change (hPa/3h):    1.336315
Timing for stats_for_move on domain 1:    0.00001 elapsed seconds
Timing for main: time 2005-08-01_12:04:50 on domain   1:    0.09654 elapsed seconds
 SOLVE_NMM: TIMESTEP IS    58   TIME IS   0.081 HOURS
d01 2005-08-01_12:04:50 AM: ATM_TSTEP_INIT entered: gid=1 NTSD=   58 NPHS=  6 KDT=   10 PHYS=F
d01 2005-08-01_12:04:50  avg global change (hPa/3h):    1.337670
Timing for stats_for_move on domain 1:    0.00001 elapsed seconds
Timing for main: time 2005-08-01_12:04:55 on domain   1:    0.14591 elapsed seconds
 SOLVE_NMM: TIMESTEP IS    59   TIME IS   0.082 HOURS
d01 2005-08-01_12:04:55 AM: ATM_TSTEP_INIT entered: gid=1 NTSD=   59 NPHS=  6 KDT=   10 PHYS=F
d01 2005-08-01_12:04:55  avg global change (hPa/3h):    1.339655
Timing for stats_for_move on domain 1:    0.00000 elapsed seconds
Timing for main: time 2005-08-01_12:05:00 on domain   1:    0.09664 elapsed seconds
 SOLVE_NMM: TIMESTEP IS    60   TIME IS   0.083 HOURS
d01 2005-08-01_12:05:00 AM: ATM_TSTEP_INIT entered: gid=1 NTSD=   60 NPHS=  6 KDT=   11 PHYS=T
d01 2005-08-01_12:05:00 AM: ATM_TSTEP_INIT working: grid id = 1; KDT, n_ts:       11      11
d01 2005-08-01_12:05:00 AM: ATM_RECVdtc: AM time step dta=  3.000000000000E+01
d01 2005-08-01_12:05:00 AM: ratio of C/AM time steps:  6
 AM: ATM_TSTEP_INIT: returning            1          11           1        1061           1        1235           1          59           1          62          -4          66          -4          69     1310335           4
d01 2005-08-01_12:05:00  avg global change (hPa/3h):    1.335980
d01 2005-08-01_12:05:00 AM: ATM_GETSST entered (PHYS=.true.)
d01 2005-08-01_12:05:00  WITHIN THE GFDL SCHEME, NTSFLG=1 FOR GFDL SLAB  2010 UPGRADS           1
d01 2005-08-01_12:05:00 AM: ATM_DOFLUXES entered
d01 2005-08-01_12:05:00 AM: ATM_DOFLUXES to return
Timing for stats_for_move on domain 1:    0.00000 elapsed seconds
d01 2005-08-01_12:05:00 AM: ATM_SENDLUXES entered with PHYS but not sendSF: returning grid id = 1
d01 2005-08-01_12:05:00 TG extrema: max(wind)=20.98 max(w)=11.42 min(w)=-5.29  max(zhel)=.0149 min(zhel)=-.0124
Timing for main: time 2005-08-01_12:05:05 on domain   1:    0.31962 elapsed seconds
 SOLVE_NMM: TIMESTEP IS    61   TIME IS   0.085 HOURS
d01 2005-08-01_12:05:05 AM: ATM_TSTEP_INIT entered: gid=1 NTSD=   61 NPHS=  6 KDT=   11 PHYS=F
d01 2005-08-01_12:05:05  avg global change (hPa/3h):    1.334542
Timing for stats_for_move on domain 1:    0.00000 elapsed seconds
Timing for main: time 2005-08-01_12:05:10 on domain   1:    0.09618 elapsed seconds
 SOLVE_NMM: TIMESTEP IS    62   TIME IS   0.086 HOURS
d01 2005-08-01_12:05:10 AM: ATM_TSTEP_INIT entered: gid=1 NTSD=   62 NPHS=  6 KDT=   11 PHYS=F
d01 2005-08-01_12:05:10  avg global change (hPa/3h):    1.341495
Timing for stats_for_move on domain 1:    0.00001 elapsed seconds
Timing for main: time 2005-08-01_12:05:15 on domain   1:    0.13598 elapsed seconds
 SOLVE_NMM: TIMESTEP IS    63   TIME IS   0.087 HOURS
d01 2005-08-01_12:05:15 AM: ATM_TSTEP_INIT entered: gid=1 NTSD=   63 NPHS=  6 KDT=   11 PHYS=F
d01 2005-08-01_12:05:15  avg global change (hPa/3h):    1.336819
Timing for stats_for_move on domain 1:    0.00000 elapsed seconds
Timing for main: time 2005-08-01_12:05:20 on domain   1:    0.09755 elapsed seconds
 SOLVE_NMM: TIMESTEP IS    64   TIME IS   0.089 HOURS
d01 2005-08-01_12:05:20 AM: ATM_TSTEP_INIT entered: gid=1 NTSD=   64 NPHS=  6 KDT=   11 PHYS=F
d01 2005-08-01_12:05:20  avg global change (hPa/3h):    1.340157
Timing for stats_for_move on domain 1:    0.00000 elapsed seconds
Timing for main: time 2005-08-01_12:05:25 on domain   1:    0.13679 elapsed seconds
 SOLVE_NMM: TIMESTEP IS    65   TIME IS   0.090 HOURS
d01 2005-08-01_12:05:25 AM: ATM_TSTEP_INIT entered: gid=1 NTSD=   65 NPHS=  6 KDT=   11 PHYS=F
d01 2005-08-01_12:05:25  avg global change (hPa/3h):    1.342773
Timing for stats_for_move on domain 1:    0.00001 elapsed seconds
Timing for main: time 2005-08-01_12:05:30 on domain   1:    0.09793 elapsed seconds
 SOLVE_NMM: TIMESTEP IS    66   TIME IS   0.092 HOURS
d01 2005-08-01_12:05:30 AM: ATM_TSTEP_INIT entered: gid=1 NTSD=   66 NPHS=  6 KDT=   12 PHYS=T
d01 2005-08-01_12:05:30 AM: ATM_TSTEP_INIT working: grid id = 1; KDT, n_ts:       12      12
d01 2005-08-01_12:05:30 AM: ATM_RECVdtc: AM time step dta=  3.000000000000E+01
d01 2005-08-01_12:05:30 AM: ratio of C/AM time steps:  6
 AM: ATM_TSTEP_INIT: returning            1          12           1        1061           1        1235           1          59           1          62          -4          66          -4          69     1310335           4
d01 2005-08-01_12:05:30  avg global change (hPa/3h):    1.339262
d01 2005-08-01_12:05:30 AM: ATM_GETSST entered (PHYS=.true.)
d01 2005-08-01_12:05:30  WITHIN THE GFDL SCHEME, NTSFLG=1 FOR GFDL SLAB  2010 UPGRADS           1
d01 2005-08-01_12:05:30 AM: ATM_DOFLUXES entered
d01 2005-08-01_12:05:30 AM: ATM_DOFLUXES to return
Timing for stats_for_move on domain 1:    0.00001 elapsed seconds
d01 2005-08-01_12:05:30 AM: In ATM_SENDLUXES grid id = 1
d01 2005-08-01_12:05:30 AM: ATM_SENDFLUXES to return grid id = 1
Timing for main: time 2005-08-01_12:05:35 on domain   1:    0.34454 elapsed seconds
 SOLVE_NMM: TIMESTEP IS    67   TIME IS   0.093 HOURS
d01 2005-08-01_12:05:35 AM: ATM_TSTEP_INIT entered: gid=1 NTSD=   67 NPHS=  6 KDT=   12 PHYS=F
d01 2005-08-01_12:05:35  avg global change (hPa/3h):    1.338187
Timing for stats_for_move on domain 1:    0.00001 elapsed seconds
Timing for main: time 2005-08-01_12:05:40 on domain   1:    0.09549 elapsed seconds
 SOLVE_NMM: TIMESTEP IS    68   TIME IS   0.094 HOURS
d01 2005-08-01_12:05:40 AM: ATM_TSTEP_INIT entered: gid=1 NTSD=   68 NPHS=  6 KDT=   12 PHYS=F
d01 2005-08-01_12:05:40  avg global change (hPa/3h):    1.345709
Timing for stats_for_move on domain 1:    0.00001 elapsed seconds
Timing for main: time 2005-08-01_12:05:45 on domain   1:    0.13693 elapsed seconds
 SOLVE_NMM: TIMESTEP IS    69   TIME IS   0.096 HOURS
d01 2005-08-01_12:05:45 AM: ATM_TSTEP_INIT entered: gid=1 NTSD=   69 NPHS=  6 KDT=   12 PHYS=F
d01 2005-08-01_12:05:45  avg global change (hPa/3h):    1.342399
Timing for stats_for_move on domain 1:    0.00001 elapsed seconds
Timing for main: time 2005-08-01_12:05:50 on domain   1:    0.09674 elapsed seconds
 SOLVE_NMM: TIMESTEP IS    70   TIME IS   0.097 HOURS
d01 2005-08-01_12:05:50 AM: ATM_TSTEP_INIT entered: gid=1 NTSD=   70 NPHS=  6 KDT=   12 PHYS=F
d01 2005-08-01_12:05:50  avg global change (hPa/3h):    1.347136
Timing for stats_for_move on domain 1:    0.00001 elapsed seconds
Timing for main: time 2005-08-01_12:05:55 on domain   1:    0.13557 elapsed seconds
 SOLVE_NMM: TIMESTEP IS    71   TIME IS   0.099 HOURS
d01 2005-08-01_12:05:55 AM: ATM_TSTEP_INIT entered: gid=1 NTSD=   71 NPHS=  6 KDT=   12 PHYS=F
d01 2005-08-01_12:05:55  avg global change (hPa/3h):    1.351387
Timing for stats_for_move on domain 1:    0.00001 elapsed seconds
Timing for main: time 2005-08-01_12:06:00 on domain   1:    0.09645 elapsed seconds
 SOLVE_NMM: TIMESTEP IS    72   TIME IS   0.100 HOURS
d01 2005-08-01_12:06:00 AM: ATM_TSTEP_INIT entered: gid=1 NTSD=   72 NPHS=  6 KDT=   13 PHYS=T
d01 2005-08-01_12:06:00 AM: ATM_TSTEP_INIT working: grid id = 1; KDT, n_ts:       13      13
d01 2005-08-01_12:06:00 AM: ATM_RECVdtc: AM time step dta=  3.000000000000E+01
d01 2005-08-01_12:06:00 AM: ratio of C/AM time steps:  6
 AM: ATM_TSTEP_INIT: returning            1          13           1        1061           1        1235           1          59           1          62          -4          66          -4          69     1310335           4
d01 2005-08-01_12:06:00  avg global change (hPa/3h):    1.349685
d01 2005-08-01_12:06:00 AM: ATM_GETSST entered (PHYS=.true.)
d01 2005-08-01_12:06:00 AM: ATM_GETSST: to receive SST
d01 2005-08-01_12:06:00 AM: ATM_GETSST: SST received
d01 2005-08-01_12:06:00  WITHIN THE GFDL SCHEME, NTSFLG=1 FOR GFDL SLAB  2010 UPGRADS           1
d01 2005-08-01_12:06:00 AM: ATM_DOFLUXES entered
d01 2005-08-01_12:06:00 AM: ATM_DOFLUXES to return
Timing for stats_for_move on domain 1:    0.00000 elapsed seconds
d01 2005-08-01_12:06:00 AM: ATM_SENDLUXES entered with PHYS but not sendSF: returning grid id = 1
d01 2005-08-01_12:06:00 TG extrema: max(wind)=20.98 max(w)=11.42 min(w)=-5.29  max(zhel)=.0153 min(zhel)=-.0124
Timing for main: time 2005-08-01_12:06:05 on domain   1:    0.32151 elapsed seconds
 SOLVE_NMM: TIMESTEP IS    73   TIME IS   0.101 HOURS
d01 2005-08-01_12:06:05 AM: ATM_TSTEP_INIT entered: gid=1 NTSD=   73 NPHS=  6 KDT=   13 PHYS=F
d01 2005-08-01_12:06:05  avg global change (hPa/3h):    1.349866
Timing for stats_for_move on domain 1:    0.00001 elapsed seconds
Timing for main: time 2005-08-01_12:06:10 on domain   1:    0.09598 elapsed seconds
 SOLVE_NMM: TIMESTEP IS    74   TIME IS   0.103 HOURS
d01 2005-08-01_12:06:10 AM: ATM_TSTEP_INIT entered: gid=1 NTSD=   74 NPHS=  6 KDT=   13 PHYS=F
d01 2005-08-01_12:06:10  avg global change (hPa/3h):    1.358294
Timing for stats_for_move on domain 1:    0.00000 elapsed seconds
Timing for main: time 2005-08-01_12:06:15 on domain   1:    0.13802 elapsed seconds
 SOLVE_NMM: TIMESTEP IS    75   TIME IS   0.104 HOURS
d01 2005-08-01_12:06:15 AM: ATM_TSTEP_INIT entered: gid=1 NTSD=   75 NPHS=  6 KDT=   13 PHYS=F
d01 2005-08-01_12:06:15  avg global change (hPa/3h):    1.355380
Timing for stats_for_move on domain 1:    0.00001 elapsed seconds
Timing for main: time 2005-08-01_12:06:20 on domain   1:    0.09718 elapsed seconds
 SOLVE_NMM: TIMESTEP IS    76   TIME IS   0.106 HOURS
d01 2005-08-01_12:06:20 AM: ATM_TSTEP_INIT entered: gid=1 NTSD=   76 NPHS=  6 KDT=   13 PHYS=F
d01 2005-08-01_12:06:20  avg global change (hPa/3h):    1.360440
Timing for stats_for_move on domain 1:    0.00001 elapsed seconds
Timing for main: time 2005-08-01_12:06:25 on domain   1:    0.13666 elapsed seconds
 SOLVE_NMM: TIMESTEP IS    77   TIME IS   0.107 HOURS
d01 2005-08-01_12:06:25 AM: ATM_TSTEP_INIT entered: gid=1 NTSD=   77 NPHS=  6 KDT=   13 PHYS=F
d01 2005-08-01_12:06:25  avg global change (hPa/3h):    1.364777
Timing for stats_for_move on domain 1:    0.00000 elapsed seconds
Timing for main: time 2005-08-01_12:06:30 on domain   1:    0.09660 elapsed seconds
 SOLVE_NMM: TIMESTEP IS    78   TIME IS   0.108 HOURS
d01 2005-08-01_12:06:30 AM: ATM_TSTEP_INIT entered: gid=1 NTSD=   78 NPHS=  6 KDT=   14 PHYS=T
d01 2005-08-01_12:06:30 AM: ATM_TSTEP_INIT working: grid id = 1; KDT, n_ts:       14      14
d01 2005-08-01_12:06:30 AM: ATM_RECVdtc: AM time step dta=  3.000000000000E+01
d01 2005-08-01_12:06:30 AM: ratio of C/AM time steps:  6
 AM: ATM_TSTEP_INIT: returning            1          14           1        1061           1        1235           1          59           1          62          -4          66          -4          69     1310335           4
d01 2005-08-01_12:06:30  avg global change (hPa/3h):    1.362610
d01 2005-08-01_12:06:30 AM: ATM_GETSST entered (PHYS=.true.)
d01 2005-08-01_12:06:30  WITHIN THE GFDL SCHEME, NTSFLG=1 FOR GFDL SLAB  2010 UPGRADS           1
d01 2005-08-01_12:06:30 AM: ATM_DOFLUXES entered
d01 2005-08-01_12:06:30 AM: ATM_DOFLUXES to return
Timing for stats_for_move on domain 1:    0.00000 elapsed seconds
d01 2005-08-01_12:06:30 AM: ATM_SENDLUXES entered with PHYS but not sendSF: returning grid id = 1
Timing for main: time 2005-08-01_12:06:35 on domain   1:    0.31152 elapsed seconds
 SOLVE_NMM: TIMESTEP IS    79   TIME IS   0.110 HOURS
d01 2005-08-01_12:06:35 AM: ATM_TSTEP_INIT entered: gid=1 NTSD=   79 NPHS=  6 KDT=   14 PHYS=F
d01 2005-08-01_12:06:35  avg global change (hPa/3h):    1.361715
Timing for stats_for_move on domain 1:    0.00000 elapsed seconds
Timing for main: time 2005-08-01_12:06:40 on domain   1:    0.09620 elapsed seconds
 SOLVE_NMM: TIMESTEP IS    80   TIME IS   0.111 HOURS
d01 2005-08-01_12:06:40 AM: ATM_TSTEP_INIT entered: gid=1 NTSD=   80 NPHS=  6 KDT=   14 PHYS=F
d01 2005-08-01_12:06:40  avg global change (hPa/3h):    1.367745
Timing for stats_for_move on domain 1:    0.00001 elapsed seconds
Timing for main: time 2005-08-01_12:06:45 on domain   1:    0.14250 elapsed seconds
 SOLVE_NMM: TIMESTEP IS    81   TIME IS   0.112 HOURS
d01 2005-08-01_12:06:45 AM: ATM_TSTEP_INIT entered: gid=1 NTSD=   81 NPHS=  6 KDT=   14 PHYS=F
d01 2005-08-01_12:06:45  avg global change (hPa/3h):    1.362465
Timing for stats_for_move on domain 1:    0.00001 elapsed seconds
Timing for main: time 2005-08-01_12:06:50 on domain   1:    0.09577 elapsed seconds
 SOLVE_NMM: TIMESTEP IS    82   TIME IS   0.114 HOURS
d01 2005-08-01_12:06:50 AM: ATM_TSTEP_INIT entered: gid=1 NTSD=   82 NPHS=  6 KDT=   14 PHYS=F
d01 2005-08-01_12:06:50  avg global change (hPa/3h):    1.365045
Timing for stats_for_move on domain 1:    0.00000 elapsed seconds
Timing for main: time 2005-08-01_12:06:55 on domain   1:    0.13719 elapsed seconds
 SOLVE_NMM: TIMESTEP IS    83   TIME IS   0.115 HOURS
d01 2005-08-01_12:06:55 AM: ATM_TSTEP_INIT entered: gid=1 NTSD=   83 NPHS=  6 KDT=   14 PHYS=F
d01 2005-08-01_12:06:55  avg global change (hPa/3h):    1.367350
Timing for stats_for_move on domain 1:    0.00000 elapsed seconds
Timing for main: time 2005-08-01_12:07:00 on domain   1:    0.09684 elapsed seconds
 SOLVE_NMM: TIMESTEP IS    84   TIME IS   0.117 HOURS
d01 2005-08-01_12:07:00 AM: ATM_TSTEP_INIT entered: gid=1 NTSD=   84 NPHS=  6 KDT=   15 PHYS=T
d01 2005-08-01_12:07:00 AM: ATM_TSTEP_INIT working: grid id = 1; KDT, n_ts:       15      15
d01 2005-08-01_12:07:00 AM: ATM_RECVdtc: AM time step dta=  3.000000000000E+01
d01 2005-08-01_12:07:00 AM: ratio of C/AM time steps:  6
 AM: ATM_TSTEP_INIT: returning            1          15           1        1061           1        1235           1          59           1          62          -4          66          -4          69     1310335           4
d01 2005-08-01_12:07:00  avg global change (hPa/3h):    1.364190
d01 2005-08-01_12:07:00 AM: ATM_GETSST entered (PHYS=.true.)
d01 2005-08-01_12:07:00  WITHIN THE GFDL SCHEME, NTSFLG=1 FOR GFDL SLAB  2010 UPGRADS           1
d01 2005-08-01_12:07:00 AM: ATM_DOFLUXES entered
d01 2005-08-01_12:07:00 AM: ATM_DOFLUXES to return
Timing for stats_for_move on domain 1:    0.00000 elapsed seconds
d01 2005-08-01_12:07:00 AM: ATM_SENDLUXES entered with PHYS but not sendSF: returning grid id = 1
d01 2005-08-01_12:07:00 TG extrema: max(wind)=20.98 max(w)=11.42 min(w)=-5.29  max(zhel)=.0153 min(zhel)=-.0124
Timing for main: time 2005-08-01_12:07:05 on domain   1:    0.31985 elapsed seconds
 SOLVE_NMM: TIMESTEP IS    85   TIME IS   0.118 HOURS
d01 2005-08-01_12:07:05 AM: ATM_TSTEP_INIT entered: gid=1 NTSD=   85 NPHS=  6 KDT=   15 PHYS=F
d01 2005-08-01_12:07:05  avg global change (hPa/3h):    1.363096
Timing for stats_for_move on domain 1:    0.00001 elapsed seconds
Timing for main: time 2005-08-01_12:07:10 on domain   1:    0.09513 elapsed seconds
 SOLVE_NMM: TIMESTEP IS    86   TIME IS   0.119 HOURS
d01 2005-08-01_12:07:10 AM: ATM_TSTEP_INIT entered: gid=1 NTSD=   86 NPHS=  6 KDT=   15 PHYS=F
d01 2005-08-01_12:07:10  avg global change (hPa/3h):    1.369436
Timing for stats_for_move on domain 1:    0.00001 elapsed seconds
Timing for main: time 2005-08-01_12:07:15 on domain   1:    0.13669 elapsed seconds
 SOLVE_NMM: TIMESTEP IS    87   TIME IS   0.121 HOURS
d01 2005-08-01_12:07:15 AM: ATM_TSTEP_INIT entered: gid=1 NTSD=   87 NPHS=  6 KDT=   15 PHYS=F
d01 2005-08-01_12:07:15  avg global change (hPa/3h):    1.364313
Timing for stats_for_move on domain 1:    0.00000 elapsed seconds
Timing for main: time 2005-08-01_12:07:20 on domain   1:    0.09732 elapsed seconds
 SOLVE_NMM: TIMESTEP IS    88   TIME IS   0.122 HOURS
d01 2005-08-01_12:07:20 AM: ATM_TSTEP_INIT entered: gid=1 NTSD=   88 NPHS=  6 KDT=   15 PHYS=F
d01 2005-08-01_12:07:20  avg global change (hPa/3h):    1.366915
Timing for stats_for_move on domain 1:    0.00000 elapsed seconds
Timing for main: time 2005-08-01_12:07:25 on domain   1:    0.13689 elapsed seconds
 SOLVE_NMM: TIMESTEP IS    89   TIME IS   0.124 HOURS
d01 2005-08-01_12:07:25 AM: ATM_TSTEP_INIT entered: gid=1 NTSD=   89 NPHS=  6 KDT=   15 PHYS=F
d01 2005-08-01_12:07:25  avg global change (hPa/3h):    1.369020
Timing for stats_for_move on domain 1:    0.00001 elapsed seconds
Timing for main: time 2005-08-01_12:07:30 on domain   1:    0.09726 elapsed seconds
 SOLVE_NMM: TIMESTEP IS    90   TIME IS   0.125 HOURS
d01 2005-08-01_12:07:30 AM: ATM_TSTEP_INIT entered: gid=1 NTSD=   90 NPHS=  6 KDT=   16 PHYS=T
d01 2005-08-01_12:07:30 AM: ATM_TSTEP_INIT working: grid id = 1; KDT, n_ts:       16      16
d01 2005-08-01_12:07:30 AM: ATM_RECVdtc: AM time step dta=  3.000000000000E+01
d01 2005-08-01_12:07:30 AM: ratio of C/AM time steps:  6
 AM: ATM_TSTEP_INIT: returning            1          16           1        1061           1        1235           1          59           1          62          -4          66          -4          69     1310335           4
d01 2005-08-01_12:07:30  avg global change (hPa/3h):    1.365147
d01 2005-08-01_12:07:30 AM: ATM_GETSST entered (PHYS=.true.)
d01 2005-08-01_12:07:30  WITHIN THE GFDL SCHEME, NTSFLG=1 FOR GFDL SLAB  2010 UPGRADS           1
d01 2005-08-01_12:07:30 AM: ATM_DOFLUXES entered
d01 2005-08-01_12:07:30 AM: ATM_DOFLUXES to return
Timing for stats_for_move on domain 1:    0.00000 elapsed seconds
d01 2005-08-01_12:07:30 AM: ATM_SENDLUXES entered with PHYS but not sendSF: returning grid id = 1
Timing for main: time 2005-08-01_12:07:35 on domain   1:    0.31401 elapsed seconds
 SOLVE_NMM: TIMESTEP IS    91   TIME IS   0.126 HOURS
d01 2005-08-01_12:07:35 AM: ATM_TSTEP_INIT entered: gid=1 NTSD=   91 NPHS=  6 KDT=   16 PHYS=F
d01 2005-08-01_12:07:35  avg global change (hPa/3h):    1.363331
Timing for stats_for_move on domain 1:    0.00001 elapsed seconds
Timing for main: time 2005-08-01_12:07:40 on domain   1:    0.09724 elapsed seconds
 SOLVE_NMM: TIMESTEP IS    92   TIME IS   0.128 HOURS
d01 2005-08-01_12:07:40 AM: ATM_TSTEP_INIT entered: gid=1 NTSD=   92 NPHS=  6 KDT=   16 PHYS=F
d01 2005-08-01_12:07:40  avg global change (hPa/3h):    1.368149
Timing for stats_for_move on domain 1:    0.00001 elapsed seconds
Timing for main: time 2005-08-01_12:07:45 on domain   1:    0.14253 elapsed seconds
 SOLVE_NMM: TIMESTEP IS    93   TIME IS   0.129 HOURS
d01 2005-08-01_12:07:45 AM: ATM_TSTEP_INIT entered: gid=1 NTSD=   93 NPHS=  6 KDT=   16 PHYS=F
d01 2005-08-01_12:07:45  avg global change (hPa/3h):    1.361661
Timing for stats_for_move on domain 1:    0.00001 elapsed seconds
Timing for main: time 2005-08-01_12:07:50 on domain   1:    0.09674 elapsed seconds
 SOLVE_NMM: TIMESTEP IS    94   TIME IS   0.131 HOURS
d01 2005-08-01_12:07:50 AM: ATM_TSTEP_INIT entered: gid=1 NTSD=   94 NPHS=  6 KDT=   16 PHYS=F
d01 2005-08-01_12:07:50  avg global change (hPa/3h):    1.362980
Timing for stats_for_move on domain 1:    0.00001 elapsed seconds
Timing for main: time 2005-08-01_12:07:55 on domain   1:    0.13728 elapsed seconds
 SOLVE_NMM: TIMESTEP IS    95   TIME IS   0.132 HOURS
d01 2005-08-01_12:07:55 AM: ATM_TSTEP_INIT entered: gid=1 NTSD=   95 NPHS=  6 KDT=   16 PHYS=F
d01 2005-08-01_12:07:55  avg global change (hPa/3h):    1.364210
Timing for stats_for_move on domain 1:    0.00001 elapsed seconds
Timing for main: time 2005-08-01_12:08:00 on domain   1:    0.09670 elapsed seconds
 SOLVE_NMM: TIMESTEP IS    96   TIME IS   0.133 HOURS
d01 2005-08-01_12:08:00 AM: ATM_TSTEP_INIT entered: gid=1 NTSD=   96 NPHS=  6 KDT=   17 PHYS=T
d01 2005-08-01_12:08:00 AM: ATM_TSTEP_INIT working: grid id = 1; KDT, n_ts:       17      17
d01 2005-08-01_12:08:00 AM: ATM_RECVdtc: AM time step dta=  3.000000000000E+01
d01 2005-08-01_12:08:00 AM: ratio of C/AM time steps:  6
 AM: ATM_TSTEP_INIT: returning            1          17           1        1061           1        1235           1          59           1          62          -4          66          -4          69     1310335           4
d01 2005-08-01_12:08:00  avg global change (hPa/3h):    1.360074
d01 2005-08-01_12:08:00 AM: ATM_GETSST entered (PHYS=.true.)
d01 2005-08-01_12:08:00  WITHIN THE GFDL SCHEME, NTSFLG=1 FOR GFDL SLAB  2010 UPGRADS           1
d01 2005-08-01_12:08:00 AM: ATM_DOFLUXES entered
d01 2005-08-01_12:08:00 AM: ATM_DOFLUXES to return
Timing for stats_for_move on domain 1:    0.00000 elapsed seconds
d01 2005-08-01_12:08:00 AM: ATM_SENDLUXES entered with PHYS but not sendSF: returning grid id = 1
d01 2005-08-01_12:08:00 TG extrema: max(wind)=20.98 max(w)=11.42 min(w)=-5.29  max(zhel)=.0153 min(zhel)=-.0124
Timing for main: time 2005-08-01_12:08:05 on domain   1:    0.32488 elapsed seconds
 SOLVE_NMM: TIMESTEP IS    97   TIME IS   0.135 HOURS
d01 2005-08-01_12:08:05 AM: ATM_TSTEP_INIT entered: gid=1 NTSD=   97 NPHS=  6 KDT=   17 PHYS=F
d01 2005-08-01_12:08:05  avg global change (hPa/3h):    1.358956
Timing for stats_for_move on domain 1:    0.00000 elapsed seconds
Timing for main: time 2005-08-01_12:08:10 on domain   1:    0.09828 elapsed seconds
 SOLVE_NMM: TIMESTEP IS    98   TIME IS   0.136 HOURS
d01 2005-08-01_12:08:10 AM: ATM_TSTEP_INIT entered: gid=1 NTSD=   98 NPHS=  6 KDT=   17 PHYS=F
d01 2005-08-01_12:08:10  avg global change (hPa/3h):    1.364858
Timing for stats_for_move on domain 1:    0.00000 elapsed seconds
Timing for main: time 2005-08-01_12:08:15 on domain   1:    0.14598 elapsed seconds
 SOLVE_NMM: TIMESTEP IS    99   TIME IS   0.138 HOURS
d01 2005-08-01_12:08:15 AM: ATM_TSTEP_INIT entered: gid=1 NTSD=   99 NPHS=  6 KDT=   17 PHYS=F
d01 2005-08-01_12:08:15  avg global change (hPa/3h):    1.359773
Timing for stats_for_move on domain 1:    0.00001 elapsed seconds
Timing for main: time 2005-08-01_12:08:20 on domain   1:    0.09828 elapsed seconds
 SOLVE_NMM: TIMESTEP IS   100   TIME IS   0.139 HOURS
d01 2005-08-01_12:08:20 AM: ATM_TSTEP_INIT entered: gid=1 NTSD=  100 NPHS=  6 KDT=   17 PHYS=F
d01 2005-08-01_12:08:20  avg global change (hPa/3h):    1.362442
Timing for stats_for_move on domain 1:    0.00001 elapsed seconds
Timing for main: time 2005-08-01_12:08:25 on domain   1:    0.13849 elapsed seconds
 SOLVE_NMM: TIMESTEP IS   101   TIME IS   0.140 HOURS
d01 2005-08-01_12:08:25 AM: ATM_TSTEP_INIT entered: gid=1 NTSD=  101 NPHS=  6 KDT=   17 PHYS=F
d01 2005-08-01_12:08:25  avg global change (hPa/3h):    1.364654
Timing for stats_for_move on domain 1:    0.00001 elapsed seconds
Timing for main: time 2005-08-01_12:08:30 on domain   1:    0.09698 elapsed seconds
 SOLVE_NMM: TIMESTEP IS   102   TIME IS   0.142 HOURS
d01 2005-08-01_12:08:30 AM: ATM_TSTEP_INIT entered: gid=1 NTSD=  102 NPHS=  6 KDT=   18 PHYS=T
d01 2005-08-01_12:08:30 AM: ATM_TSTEP_INIT working: grid id = 1; KDT, n_ts:       18      18
d01 2005-08-01_12:08:30 AM: ATM_RECVdtc: AM time step dta=  3.000000000000E+01
d01 2005-08-01_12:08:30 AM: ratio of C/AM time steps:  6
 AM: ATM_TSTEP_INIT: returning            1          18           1        1061           1        1235           1          59           1          62          -4          66          -4          69     1310335           4
d01 2005-08-01_12:08:30  avg global change (hPa/3h):    1.360704
d01 2005-08-01_12:08:30 AM: ATM_GETSST entered (PHYS=.true.)
d01 2005-08-01_12:08:30  WITHIN THE GFDL SCHEME, NTSFLG=1 FOR GFDL SLAB  2010 UPGRADS           1
d01 2005-08-01_12:08:30 AM: ATM_DOFLUXES entered
d01 2005-08-01_12:08:30 AM: ATM_DOFLUXES to return
Timing for stats_for_move on domain 1:    0.00000 elapsed seconds
d01 2005-08-01_12:08:30 AM: In ATM_SENDLUXES grid id = 1
d01 2005-08-01_12:08:30 AM: ATM_SENDFLUXES to return grid id = 1
Timing for main: time 2005-08-01_12:08:35 on domain   1:    0.34926 elapsed seconds
 SOLVE_NMM: TIMESTEP IS   103   TIME IS   0.143 HOURS
d01 2005-08-01_12:08:35 AM: ATM_TSTEP_INIT entered: gid=1 NTSD=  103 NPHS=  6 KDT=   18 PHYS=F
d01 2005-08-01_12:08:35  avg global change (hPa/3h):    1.358992
Timing for stats_for_move on domain 1:    0.00000 elapsed seconds
Timing for main: time 2005-08-01_12:08:40 on domain   1:    0.09568 elapsed seconds
 SOLVE_NMM: TIMESTEP IS   104   TIME IS   0.144 HOURS
d01 2005-08-01_12:08:40 AM: ATM_TSTEP_INIT entered: gid=1 NTSD=  104 NPHS=  6 KDT=   18 PHYS=F
d01 2005-08-01_12:08:40  avg global change (hPa/3h):    1.364436
Timing for stats_for_move on domain 1:    0.00001 elapsed seconds
Timing for main: time 2005-08-01_12:08:45 on domain   1:    0.15125 elapsed seconds
 SOLVE_NMM: TIMESTEP IS   105   TIME IS   0.146 HOURS
d01 2005-08-01_12:08:45 AM: ATM_TSTEP_INIT entered: gid=1 NTSD=  105 NPHS=  6 KDT=   18 PHYS=F
d01 2005-08-01_12:08:45  avg global change (hPa/3h):    1.358840
Timing for stats_for_move on domain 1:    0.00000 elapsed seconds
Timing for main: time 2005-08-01_12:08:50 on domain   1:    0.09777 elapsed seconds
 SOLVE_NMM: TIMESTEP IS   106   TIME IS   0.147 HOURS
d01 2005-08-01_12:08:50 AM: ATM_TSTEP_INIT entered: gid=1 NTSD=  106 NPHS=  6 KDT=   18 PHYS=F
d01 2005-08-01_12:08:50  avg global change (hPa/3h):    1.361024
Timing for stats_for_move on domain 1:    0.00000 elapsed seconds
Timing for main: time 2005-08-01_12:08:55 on domain   1:    0.13753 elapsed seconds
 SOLVE_NMM: TIMESTEP IS   107   TIME IS   0.149 HOURS
d01 2005-08-01_12:08:55 AM: ATM_TSTEP_INIT entered: gid=1 NTSD=  107 NPHS=  6 KDT=   18 PHYS=F
d01 2005-08-01_12:08:55  avg global change (hPa/3h):    1.362550
Timing for stats_for_move on domain 1:    0.00001 elapsed seconds
Timing for main: time 2005-08-01_12:09:00 on domain   1:    0.09650 elapsed seconds
 SOLVE_NMM: TIMESTEP IS   108   TIME IS   0.150 HOURS
d01 2005-08-01_12:09:00 AM: ATM_TSTEP_INIT entered: gid=1 NTSD=  108 NPHS=  6 KDT=   19 PHYS=T
d01 2005-08-01_12:09:00 AM: ATM_TSTEP_INIT working: grid id = 1; KDT, n_ts:       19      19
d01 2005-08-01_12:09:00 AM: ATM_RECVdtc: AM time step dta=  3.000000000000E+01
d01 2005-08-01_12:09:00 AM: ratio of C/AM time steps:  6
 AM: ATM_TSTEP_INIT: returning            1          19           1        1061           1        1235           1          59           1          62          -4          66          -4          69     1310335           4
d01 2005-08-01_12:09:00  avg global change (hPa/3h):    1.357834
d01 2005-08-01_12:09:00 AM: ATM_GETSST entered (PHYS=.true.)
d01 2005-08-01_12:09:00 AM: ATM_GETSST: to receive SST
d01 2005-08-01_12:09:00 AM: ATM_GETSST: SST received
d01 2005-08-01_12:09:00  WITHIN THE GFDL SCHEME, NTSFLG=1 FOR GFDL SLAB  2010 UPGRADS           1
d01 2005-08-01_12:09:00 AM: ATM_DOFLUXES entered
d01 2005-08-01_12:09:00 AM: ATM_DOFLUXES to return
Timing for stats_for_move on domain 1:    0.00001 elapsed seconds
d01 2005-08-01_12:09:00 AM: ATM_SENDLUXES entered with PHYS but not sendSF: returning grid id = 1
d01 2005-08-01_12:09:00 TG extrema: max(wind)=20.98 max(w)=11.42 min(w)=-5.29  max(zhel)=.0153 min(zhel)=-.0124
Timing for main: time 2005-08-01_12:09:05 on domain   1:    0.32278 elapsed seconds
 SOLVE_NMM: TIMESTEP IS   109   TIME IS   0.151 HOURS
d01 2005-08-01_12:09:05 AM: ATM_TSTEP_INIT entered: gid=1 NTSD=  109 NPHS=  6 KDT=   19 PHYS=F
d01 2005-08-01_12:09:05  avg global change (hPa/3h):    1.355081
Timing for stats_for_move on domain 1:    0.00001 elapsed seconds
Timing for main: time 2005-08-01_12:09:10 on domain   1:    0.09603 elapsed seconds
 SOLVE_NMM: TIMESTEP IS   110   TIME IS   0.153 HOURS
d01 2005-08-01_12:09:10 AM: ATM_TSTEP_INIT entered: gid=1 NTSD=  110 NPHS=  6 KDT=   19 PHYS=F
d01 2005-08-01_12:09:10  avg global change (hPa/3h):    1.359671
Timing for stats_for_move on domain 1:    0.00001 elapsed seconds
Timing for main: time 2005-08-01_12:09:15 on domain   1:    0.13737 elapsed seconds
 SOLVE_NMM: TIMESTEP IS   111   TIME IS   0.154 HOURS
d01 2005-08-01_12:09:15 AM: ATM_TSTEP_INIT entered: gid=1 NTSD=  111 NPHS=  6 KDT=   19 PHYS=F
d01 2005-08-01_12:09:15  avg global change (hPa/3h):    1.354072
Timing for stats_for_move on domain 1:    0.00001 elapsed seconds
Timing for main: time 2005-08-01_12:09:20 on domain   1:    0.09490 elapsed seconds
 SOLVE_NMM: TIMESTEP IS   112   TIME IS   0.156 HOURS
d01 2005-08-01_12:09:20 AM: ATM_TSTEP_INIT entered: gid=1 NTSD=  112 NPHS=  6 KDT=   19 PHYS=F
d01 2005-08-01_12:09:20  avg global change (hPa/3h):    1.356461
Timing for stats_for_move on domain 1:    0.00000 elapsed seconds
Timing for main: time 2005-08-01_12:09:25 on domain   1:    0.13580 elapsed seconds
 SOLVE_NMM: TIMESTEP IS   113   TIME IS   0.157 HOURS
d01 2005-08-01_12:09:25 AM: ATM_TSTEP_INIT entered: gid=1 NTSD=  113 NPHS=  6 KDT=   19 PHYS=F
d01 2005-08-01_12:09:25  avg global change (hPa/3h):    1.358488
Timing for stats_for_move on domain 1:    0.00001 elapsed seconds
Timing for main: time 2005-08-01_12:09:30 on domain   1:    0.09680 elapsed seconds
 SOLVE_NMM: TIMESTEP IS   114   TIME IS   0.158 HOURS
d01 2005-08-01_12:09:30 AM: ATM_TSTEP_INIT entered: gid=1 NTSD=  114 NPHS=  6 KDT=   20 PHYS=T
d01 2005-08-01_12:09:30 AM: ATM_TSTEP_INIT working: grid id = 1; KDT, n_ts:       20      20
d01 2005-08-01_12:09:30 AM: ATM_RECVdtc: AM time step dta=  3.000000000000E+01
d01 2005-08-01_12:09:30 AM: ratio of C/AM time steps:  6
 AM: ATM_TSTEP_INIT: returning            1          20           1        1061           1        1235           1          59           1          62          -4          66          -4          69     1310335           4
d01 2005-08-01_12:09:30  avg global change (hPa/3h):    1.354434
d01 2005-08-01_12:09:30 AM: ATM_GETSST entered (PHYS=.true.)
d01 2005-08-01_12:09:30  WITHIN THE GFDL SCHEME, NTSFLG=1 FOR GFDL SLAB  2010 UPGRADS           1
d01 2005-08-01_12:09:30 AM: ATM_DOFLUXES entered
d01 2005-08-01_12:09:30 AM: ATM_DOFLUXES to return
Timing for stats_for_move on domain 1:    0.00000 elapsed seconds
d01 2005-08-01_12:09:30 AM: ATM_SENDLUXES entered with PHYS but not sendSF: returning grid id = 1
Timing for main: time 2005-08-01_12:09:35 on domain   1:    0.31319 elapsed seconds
 SOLVE_NMM: TIMESTEP IS   115   TIME IS   0.160 HOURS
d01 2005-08-01_12:09:35 AM: ATM_TSTEP_INIT entered: gid=1 NTSD=  115 NPHS=  6 KDT=   20 PHYS=F
d01 2005-08-01_12:09:35  avg global change (hPa/3h):    1.352419
Timing for stats_for_move on domain 1:    0.00000 elapsed seconds
Timing for main: time 2005-08-01_12:09:40 on domain   1:    0.09730 elapsed seconds
 SOLVE_NMM: TIMESTEP IS   116   TIME IS   0.161 HOURS
d01 2005-08-01_12:09:40 AM: ATM_TSTEP_INIT entered: gid=1 NTSD=  116 NPHS=  6 KDT=   20 PHYS=F
d01 2005-08-01_12:09:40  avg global change (hPa/3h):    1.357633
Timing for stats_for_move on domain 1:    0.00001 elapsed seconds
Timing for main: time 2005-08-01_12:09:45 on domain   1:    0.13681 elapsed seconds
 SOLVE_NMM: TIMESTEP IS   117   TIME IS   0.162 HOURS
d01 2005-08-01_12:09:45 AM: ATM_TSTEP_INIT entered: gid=1 NTSD=  117 NPHS=  6 KDT=   20 PHYS=F
d01 2005-08-01_12:09:45  avg global change (hPa/3h):    1.352354
Timing for stats_for_move on domain 1:    0.00001 elapsed seconds
Timing for main: time 2005-08-01_12:09:50 on domain   1:    0.09546 elapsed seconds
 SOLVE_NMM: TIMESTEP IS   118   TIME IS   0.164 HOURS
d01 2005-08-01_12:09:50 AM: ATM_TSTEP_INIT entered: gid=1 NTSD=  118 NPHS=  6 KDT=   20 PHYS=F
d01 2005-08-01_12:09:50  avg global change (hPa/3h):    1.354881
Timing for stats_for_move on domain 1:    0.00001 elapsed seconds
Timing for main: time 2005-08-01_12:09:55 on domain   1:    0.15195 elapsed seconds
 SOLVE_NMM: TIMESTEP IS   119   TIME IS   0.165 HOURS
d01 2005-08-01_12:09:55 AM: ATM_TSTEP_INIT entered: gid=1 NTSD=  119 NPHS=  6 KDT=   20 PHYS=F
d01 2005-08-01_12:09:55  avg global change (hPa/3h):    1.357031
Timing for stats_for_move on domain 1:    0.00001 elapsed seconds
Timing for main: time 2005-08-01_12:10:00 on domain   1:    0.09625 elapsed seconds
 SOLVE_NMM: TIMESTEP IS   120   TIME IS   0.167 HOURS
d01 2005-08-01_12:10:00 AM: ATM_TSTEP_INIT entered: gid=1 NTSD=  120 NPHS=  6 KDT=   21 PHYS=T
d01 2005-08-01_12:10:00 AM: ATM_TSTEP_INIT working: grid id = 1; KDT, n_ts:       21      21
d01 2005-08-01_12:10:00 AM: ATM_RECVdtc: AM time step dta=  3.000000000000E+01
d01 2005-08-01_12:10:00 AM: ratio of C/AM time steps:  6
 AM: ATM_TSTEP_INIT: returning            1          21           1        1061           1        1235           1          59           1          62          -4          66          -4          69     1310335           4
d01 2005-08-01_12:10:00  avg global change (hPa/3h):    1.352762
d01 2005-08-01_12:10:00 AM: ATM_GETSST entered (PHYS=.true.)
d01 2005-08-01_12:10:00  WITHIN THE GFDL SCHEME, NTSFLG=1 FOR GFDL SLAB  2010 UPGRADS           1
d01 2005-08-01_12:10:00 AM: ATM_DOFLUXES entered
d01 2005-08-01_12:10:00 AM: ATM_DOFLUXES to return
Timing for stats_for_move on domain 1:    0.00001 elapsed seconds
d01 2005-08-01_12:10:00 AM: ATM_SENDLUXES entered with PHYS but not sendSF: returning grid id = 1
d01 2005-08-01_12:10:00 TG extrema: max(wind)=20.98 max(w)=11.42 min(w)=-5.29  max(zhel)=.0155 min(zhel)=-.0124
Timing for main: time 2005-08-01_12:10:05 on domain   1:    0.32159 elapsed seconds
 SOLVE_NMM: TIMESTEP IS   121   TIME IS   0.168 HOURS
d01 2005-08-01_12:10:05 AM: ATM_TSTEP_INIT entered: gid=1 NTSD=  121 NPHS=  6 KDT=   21 PHYS=F
d01 2005-08-01_12:10:05  avg global change (hPa/3h):    1.350517
Timing for stats_for_move on domain 1:    0.00000 elapsed seconds
Timing for main: time 2005-08-01_12:10:10 on domain   1:    0.09672 elapsed seconds
 SOLVE_NMM: TIMESTEP IS   122   TIME IS   0.169 HOURS
d01 2005-08-01_12:10:10 AM: ATM_TSTEP_INIT entered: gid=1 NTSD=  122 NPHS=  6 KDT=   21 PHYS=F
d01 2005-08-01_12:10:10  avg global change (hPa/3h):    1.355730
Timing for stats_for_move on domain 1:    0.00000 elapsed seconds
Timing for main: time 2005-08-01_12:10:15 on domain   1:    0.13667 elapsed seconds
 SOLVE_NMM: TIMESTEP IS   123   TIME IS   0.171 HOURS
d01 2005-08-01_12:10:15 AM: ATM_TSTEP_INIT entered: gid=1 NTSD=  123 NPHS=  6 KDT=   21 PHYS=F
d01 2005-08-01_12:10:15  avg global change (hPa/3h):    1.350287
Timing for stats_for_move on domain 1:    0.00000 elapsed seconds
Timing for main: time 2005-08-01_12:10:20 on domain   1:    0.09696 elapsed seconds
 SOLVE_NMM: TIMESTEP IS   124   TIME IS   0.172 HOURS
d01 2005-08-01_12:10:20 AM: ATM_TSTEP_INIT entered: gid=1 NTSD=  124 NPHS=  6 KDT=   21 PHYS=F
d01 2005-08-01_12:10:20  avg global change (hPa/3h):    1.352669
Timing for stats_for_move on domain 1:    0.00001 elapsed seconds
Timing for main: time 2005-08-01_12:10:25 on domain   1:    0.13577 elapsed seconds
 SOLVE_NMM: TIMESTEP IS   125   TIME IS   0.174 HOURS
d01 2005-08-01_12:10:25 AM: ATM_TSTEP_INIT entered: gid=1 NTSD=  125 NPHS=  6 KDT=   21 PHYS=F
d01 2005-08-01_12:10:25  avg global change (hPa/3h):    1.355159
Timing for stats_for_move on domain 1:    0.00000 elapsed seconds
Timing for main: time 2005-08-01_12:10:30 on domain   1:    0.09650 elapsed seconds
 SOLVE_NMM: TIMESTEP IS   126   TIME IS   0.175 HOURS
d01 2005-08-01_12:10:30 AM: ATM_TSTEP_INIT entered: gid=1 NTSD=  126 NPHS=  6 KDT=   22 PHYS=T
d01 2005-08-01_12:10:30 AM: ATM_TSTEP_INIT working: grid id = 1; KDT, n_ts:       22      22
d01 2005-08-01_12:10:30 AM: ATM_RECVdtc: AM time step dta=  3.000000000000E+01
d01 2005-08-01_12:10:30 AM: ratio of C/AM time steps:  6
 AM: ATM_TSTEP_INIT: returning            1          22           1        1061           1        1235           1          59           1          62          -4          66          -4          69     1310335           4
d01 2005-08-01_12:10:30  avg global change (hPa/3h):    1.351655
d01 2005-08-01_12:10:30 AM: ATM_GETSST entered (PHYS=.true.)
d01 2005-08-01_12:10:30  WITHIN THE GFDL SCHEME, NTSFLG=1 FOR GFDL SLAB  2010 UPGRADS           1
d01 2005-08-01_12:10:30 AM: ATM_DOFLUXES entered
d01 2005-08-01_12:10:30 AM: ATM_DOFLUXES to return
Timing for stats_for_move on domain 1:    0.00001 elapsed seconds
d01 2005-08-01_12:10:30 AM: ATM_SENDLUXES entered with PHYS but not sendSF: returning grid id = 1
Timing for main: time 2005-08-01_12:10:35 on domain   1:    0.31330 elapsed seconds
 SOLVE_NMM: TIMESTEP IS   127   TIME IS   0.176 HOURS
d01 2005-08-01_12:10:35 AM: ATM_TSTEP_INIT entered: gid=1 NTSD=  127 NPHS=  6 KDT=   22 PHYS=F
d01 2005-08-01_12:10:35  avg global change (hPa/3h):    1.350423
Timing for stats_for_move on domain 1:    0.00001 elapsed seconds
Timing for main: time 2005-08-01_12:10:40 on domain   1:    0.09595 elapsed seconds
 SOLVE_NMM: TIMESTEP IS   128   TIME IS   0.178 HOURS
d01 2005-08-01_12:10:40 AM: ATM_TSTEP_INIT entered: gid=1 NTSD=  128 NPHS=  6 KDT=   22 PHYS=F
d01 2005-08-01_12:10:40  avg global change (hPa/3h):    1.356452
Timing for stats_for_move on domain 1:    0.00000 elapsed seconds
Timing for main: time 2005-08-01_12:10:45 on domain   1:    0.13668 elapsed seconds
 SOLVE_NMM: TIMESTEP IS   129   TIME IS   0.179 HOURS
d01 2005-08-01_12:10:45 AM: ATM_TSTEP_INIT entered: gid=1 NTSD=  129 NPHS=  6 KDT=   22 PHYS=F
d01 2005-08-01_12:10:45  avg global change (hPa/3h):    1.351968
Timing for stats_for_move on domain 1:    0.00001 elapsed seconds
Timing for main: time 2005-08-01_12:10:50 on domain   1:    0.09691 elapsed seconds
 SOLVE_NMM: TIMESTEP IS   130   TIME IS   0.181 HOURS
[...]
d01 2005-08-01_20:56:45  avg global change (hPa/3h):   0.3821323
Timing for stats_for_move on domain 1:    0.00000 elapsed seconds
Timing for main: time 2005-08-01_20:56:50 on domain   1:    0.10486 elapsed seconds
 SOLVE_NMM: TIMESTEP IS  6442   TIME IS   8.947 HOURS
d01 2005-08-01_20:56:50 AM: ATM_TSTEP_INIT entered: gid=1 NTSD= 6442 NPHS=  6 KDT= 1074 PHYS=F
d01 2005-08-01_20:56:50  avg global change (hPa/3h):   0.3847834
Timing for stats_for_move on domain 1:    0.00001 elapsed seconds
Timing for main: time 2005-08-01_20:56:55 on domain   1:    0.13741 elapsed seconds
 SOLVE_NMM: TIMESTEP IS  6443   TIME IS   8.949 HOURS
d01 2005-08-01_20:56:55 AM: ATM_TSTEP_INIT entered: gid=1 NTSD= 6443 NPHS=  6 KDT= 1074 PHYS=F
d01 2005-08-01_20:56:55  avg global change (hPa/3h):   0.3884543
Timing for stats_for_move on domain 1:    0.00001 elapsed seconds
Timing for main: time 2005-08-01_20:57:00 on domain   1:    0.09724 elapsed seconds
 SOLVE_NMM: TIMESTEP IS  6444   TIME IS   8.950 HOURS
d01 2005-08-01_20:57:00 AM: ATM_TSTEP_INIT entered: gid=1 NTSD= 6444 NPHS=  6 KDT= 1075 PHYS=T
d01 2005-08-01_20:57:00 AM: ATM_TSTEP_INIT working: grid id = 1; KDT, n_ts:     1075    1075
d01 2005-08-01_20:57:00 AM: ATM_RECVdtc: AM time step dta=  3.000000000000E+01
d01 2005-08-01_20:57:00 AM: ratio of C/AM time steps:  6
 AM: ATM_TSTEP_INIT: returning            1        1075           1        1061           1        1235           1          59           1          62          -4          66          -4          69     1310335           4
d01 2005-08-01_20:57:00  avg global change (hPa/3h):   0.3846855
d01 2005-08-01_20:57:00 AM: ATM_GETSST entered (PHYS=.true.)
d01 2005-08-01_20:57:00 AM: ATM_GETSST: to receive SST
d01 2005-08-01_20:57:00 AM: ATM_GETSST: SST received
d01 2005-08-01_20:57:00  WITHIN THE GFDL SCHEME, NTSFLG=1 FOR GFDL SLAB  2010 UPGRADS           1
d01 2005-08-01_20:57:00 AM: ATM_DOFLUXES entered
d01 2005-08-01_20:57:00 AM: ATM_DOFLUXES to return
Timing for stats_for_move on domain 1:    0.00000 elapsed seconds
d01 2005-08-01_20:57:00 AM: ATM_SENDLUXES entered with PHYS but not sendSF: returning grid id = 1
d01 2005-08-01_20:57:00 TG extrema: max(wind)=21.18 max(w)=26.62 min(w)=-7.66  max(zhel)=.0206 min(zhel)=-.0177
Timing for main: time 2005-08-01_20:57:05 on domain   1:    0.34544 elapsed seconds
 SOLVE_NMM: TIMESTEP IS  6445   TIME IS   8.951 HOURS
d01 2005-08-01_20:57:05 AM: ATM_TSTEP_INIT entered: gid=1 NTSD= 6445 NPHS=  6 KDT= 1075 PHYS=F
d01 2005-08-01_20:57:05  avg global change (hPa/3h):   0.3822477
Timing for stats_for_move on domain 1:    0.00001 elapsed seconds
Timing for main: time 2005-08-01_20:57:10 on domain   1:    0.09756 elapsed seconds
 SOLVE_NMM: TIMESTEP IS  6446   TIME IS   8.953 HOURS
d01 2005-08-01_20:57:10 AM: ATM_TSTEP_INIT entered: gid=1 NTSD= 6446 NPHS=  6 KDT= 1075 PHYS=F
d01 2005-08-01_20:57:10  avg global change (hPa/3h):   0.3884946
Timing for stats_for_move on domain 1:    0.00000 elapsed seconds
Timing for main: time 2005-08-01_20:57:15 on domain   1:    0.13681 elapsed seconds
 SOLVE_NMM: TIMESTEP IS  6447   TIME IS   8.954 HOURS
d01 2005-08-01_20:57:15 AM: ATM_TSTEP_INIT entered: gid=1 NTSD= 6447 NPHS=  6 KDT= 1075 PHYS=F
d01 2005-08-01_20:57:15  avg global change (hPa/3h):   0.3815827
Timing for stats_for_move on domain 1:    0.00000 elapsed seconds
Timing for main: time 2005-08-01_20:57:20 on domain   1:    0.09634 elapsed seconds
 SOLVE_NMM: TIMESTEP IS  6448   TIME IS   8.956 HOURS
d01 2005-08-01_20:57:20 AM: ATM_TSTEP_INIT entered: gid=1 NTSD= 6448 NPHS=  6 KDT= 1075 PHYS=F
d01 2005-08-01_20:57:20  avg global change (hPa/3h):   0.3842349
Timing for stats_for_move on domain 1:    0.00000 elapsed seconds
Timing for main: time 2005-08-01_20:57:25 on domain   1:    0.13620 elapsed seconds
 SOLVE_NMM: TIMESTEP IS  6449   TIME IS   8.957 HOURS
d01 2005-08-01_20:57:25 AM: ATM_TSTEP_INIT entered: gid=1 NTSD= 6449 NPHS=  6 KDT= 1075 PHYS=F
d01 2005-08-01_20:57:25  avg global change (hPa/3h):   0.3880713
Timing for stats_for_move on domain 1:    0.00000 elapsed seconds
Timing for main: time 2005-08-01_20:57:30 on domain   1:    0.11412 elapsed seconds
 SOLVE_NMM: TIMESTEP IS  6450   TIME IS   8.958 HOURS
d01 2005-08-01_20:57:30 AM: ATM_TSTEP_INIT entered: gid=1 NTSD= 6450 NPHS=  6 KDT= 1076 PHYS=T
d01 2005-08-01_20:57:30 AM: ATM_TSTEP_INIT working: grid id = 1; KDT, n_ts:     1076    1076
d01 2005-08-01_20:57:30 AM: ATM_RECVdtc: AM time step dta=  3.000000000000E+01
d01 2005-08-01_20:57:30 AM: ratio of C/AM time steps:  6
 AM: ATM_TSTEP_INIT: returning            1        1076           1        1061           1        1235           1          59           1          62          -4          66          -4          69     1310335           4
d01 2005-08-01_20:57:30  avg global change (hPa/3h):   0.3842815
d01 2005-08-01_20:57:30 AM: ATM_GETSST entered (PHYS=.true.)
d01 2005-08-01_20:57:30  WITHIN THE GFDL SCHEME, NTSFLG=1 FOR GFDL SLAB  2010 UPGRADS           1
d01 2005-08-01_20:57:30 AM: ATM_DOFLUXES entered
d01 2005-08-01_20:57:30 AM: ATM_DOFLUXES to return
Timing for stats_for_move on domain 1:    0.00001 elapsed seconds
d01 2005-08-01_20:57:30 AM: ATM_SENDLUXES entered with PHYS but not sendSF: returning grid id = 1
Timing for main: time 2005-08-01_20:57:35 on domain   1:    0.88397 elapsed seconds
 SOLVE_NMM: TIMESTEP IS  6451   TIME IS   8.960 HOURS
d01 2005-08-01_20:57:35 AM: ATM_TSTEP_INIT entered: gid=1 NTSD= 6451 NPHS=  6 KDT= 1076 PHYS=F
d01 2005-08-01_20:57:35  avg global change (hPa/3h):   0.3818316
Timing for stats_for_move on domain 1:    0.00000 elapsed seconds
Timing for main: time 2005-08-01_20:57:40 on domain   1:    0.09711 elapsed seconds
 SOLVE_NMM: TIMESTEP IS  6452   TIME IS   8.961 HOURS
d01 2005-08-01_20:57:40 AM: ATM_TSTEP_INIT entered: gid=1 NTSD= 6452 NPHS=  6 KDT= 1076 PHYS=F
d01 2005-08-01_20:57:40  avg global change (hPa/3h):   0.3880259
Timing for stats_for_move on domain 1:    0.00001 elapsed seconds
Timing for main: time 2005-08-01_20:57:45 on domain   1:    0.14667 elapsed seconds
 SOLVE_NMM: TIMESTEP IS  6453   TIME IS   8.962 HOURS
d01 2005-08-01_20:57:45 AM: ATM_TSTEP_INIT entered: gid=1 NTSD= 6453 NPHS=  6 KDT= 1076 PHYS=F
d01 2005-08-01_20:57:45  avg global change (hPa/3h):   0.3810177
Timing for stats_for_move on domain 1:    0.00000 elapsed seconds
Timing for main: time 2005-08-01_20:57:50 on domain   1:    0.09674 elapsed seconds
 SOLVE_NMM: TIMESTEP IS  6454   TIME IS   8.964 HOURS
d01 2005-08-01_20:57:50 AM: ATM_TSTEP_INIT entered: gid=1 NTSD= 6454 NPHS=  6 KDT= 1076 PHYS=F
d01 2005-08-01_20:57:50  avg global change (hPa/3h):   0.3838391
Timing for stats_for_move on domain 1:    0.00001 elapsed seconds
Timing for main: time 2005-08-01_20:57:55 on domain   1:    0.13656 elapsed seconds
 SOLVE_NMM: TIMESTEP IS  6455   TIME IS   8.965 HOURS
d01 2005-08-01_20:57:55 AM: ATM_TSTEP_INIT entered: gid=1 NTSD= 6455 NPHS=  6 KDT= 1076 PHYS=F
d01 2005-08-01_20:57:55  avg global change (hPa/3h):   0.3876829
Timing for stats_for_move on domain 1:    0.00001 elapsed seconds
Timing for main: time 2005-08-01_20:58:00 on domain   1:    0.09658 elapsed seconds
 SOLVE_NMM: TIMESTEP IS  6456   TIME IS   8.967 HOURS
d01 2005-08-01_20:58:00 AM: ATM_TSTEP_INIT entered: gid=1 NTSD= 6456 NPHS=  6 KDT= 1077 PHYS=T
d01 2005-08-01_20:58:00 AM: ATM_TSTEP_INIT working: grid id = 1; KDT, n_ts:     1077    1077
d01 2005-08-01_20:58:00 AM: ATM_RECVdtc: AM time step dta=  3.000000000000E+01
d01 2005-08-01_20:58:00 AM: ratio of C/AM time steps:  6
 AM: ATM_TSTEP_INIT: returning            1        1077           1        1061           1        1235           1          59           1          62          -4          66          -4          69     1310335           4
d01 2005-08-01_20:58:00  avg global change (hPa/3h):   0.3840211
d01 2005-08-01_20:58:00 AM: ATM_GETSST entered (PHYS=.true.)
d01 2005-08-01_20:58:00  WITHIN THE GFDL SCHEME, NTSFLG=1 FOR GFDL SLAB  2010 UPGRADS           1
d01 2005-08-01_20:58:00 AM: ATM_DOFLUXES entered
d01 2005-08-01_20:58:00 AM: ATM_DOFLUXES to return
Timing for stats_for_move on domain 1:    0.00000 elapsed seconds
d01 2005-08-01_20:58:00 AM: ATM_SENDLUXES entered with PHYS but not sendSF: returning grid id = 1
d01 2005-08-01_20:58:00 TG extrema: max(wind)=21.18 max(w)=26.62 min(w)=-7.66  max(zhel)=.0206 min(zhel)=-.0177
Timing for main: time 2005-08-01_20:58:05 on domain   1:    0.32985 elapsed seconds
 SOLVE_NMM: TIMESTEP IS  6457   TIME IS   8.968 HOURS
d01 2005-08-01_20:58:05 AM: ATM_TSTEP_INIT entered: gid=1 NTSD= 6457 NPHS=  6 KDT= 1077 PHYS=F
d01 2005-08-01_20:58:05  avg global change (hPa/3h):   0.3814472
Timing for stats_for_move on domain 1:    0.00001 elapsed seconds
Timing for main: time 2005-08-01_20:58:10 on domain   1:    0.09764 elapsed seconds
 SOLVE_NMM: TIMESTEP IS  6458   TIME IS   8.969 HOURS
d01 2005-08-01_20:58:10 AM: ATM_TSTEP_INIT entered: gid=1 NTSD= 6458 NPHS=  6 KDT= 1077 PHYS=F
d01 2005-08-01_20:58:10  avg global change (hPa/3h):   0.3878433
Timing for stats_for_move on domain 1:    0.00001 elapsed seconds
Timing for main: time 2005-08-01_20:58:15 on domain   1:    0.13585 elapsed seconds
 SOLVE_NMM: TIMESTEP IS  6459   TIME IS   8.971 HOURS
d01 2005-08-01_20:58:15 AM: ATM_TSTEP_INIT entered: gid=1 NTSD= 6459 NPHS=  6 KDT= 1077 PHYS=F
d01 2005-08-01_20:58:15  avg global change (hPa/3h):   0.3809695
Timing for stats_for_move on domain 1:    0.00001 elapsed seconds
Timing for main: time 2005-08-01_20:58:20 on domain   1:    0.09703 elapsed seconds
 SOLVE_NMM: TIMESTEP IS  6460   TIME IS   8.972 HOURS
d01 2005-08-01_20:58:20 AM: ATM_TSTEP_INIT entered: gid=1 NTSD= 6460 NPHS=  6 KDT= 1077 PHYS=F
d01 2005-08-01_20:58:20  avg global change (hPa/3h):   0.3837023
Timing for stats_for_move on domain 1:    0.00001 elapsed seconds
Timing for main: time 2005-08-01_20:58:25 on domain   1:    0.13637 elapsed seconds
 SOLVE_NMM: TIMESTEP IS  6461   TIME IS   8.974 HOURS
d01 2005-08-01_20:58:25 AM: ATM_TSTEP_INIT entered: gid=1 NTSD= 6461 NPHS=  6 KDT= 1077 PHYS=F
d01 2005-08-01_20:58:25  avg global change (hPa/3h):   0.3875648
Timing for stats_for_move on domain 1:    0.00001 elapsed seconds
Timing for main: time 2005-08-01_20:58:30 on domain   1:    0.09777 elapsed seconds
 SOLVE_NMM: TIMESTEP IS  6462   TIME IS   8.975 HOURS
d01 2005-08-01_20:58:30 AM: ATM_TSTEP_INIT entered: gid=1 NTSD= 6462 NPHS=  6 KDT= 1078 PHYS=T
d01 2005-08-01_20:58:30 AM: ATM_TSTEP_INIT working: grid id = 1; KDT, n_ts:     1078    1078
d01 2005-08-01_20:58:30 AM: ATM_RECVdtc: AM time step dta=  3.000000000000E+01
d01 2005-08-01_20:58:30 AM: ratio of C/AM time steps:  6
 AM: ATM_TSTEP_INIT: returning            1        1078           1        1061           1        1235           1          59           1          62          -4          66          -4          69     1310335           4
d01 2005-08-01_20:58:30  avg global change (hPa/3h):   0.3840750
d01 2005-08-01_20:58:30 AM: ATM_GETSST entered (PHYS=.true.)
d01 2005-08-01_20:58:30  WITHIN THE GFDL SCHEME, NTSFLG=1 FOR GFDL SLAB  2010 UPGRADS           1
d01 2005-08-01_20:58:30 AM: ATM_DOFLUXES entered
d01 2005-08-01_20:58:30 AM: ATM_DOFLUXES to return
Timing for stats_for_move on domain 1:    0.00001 elapsed seconds
d01 2005-08-01_20:58:30 AM: ATM_SENDLUXES entered with PHYS but not sendSF: returning grid id = 1
Timing for main: time 2005-08-01_20:58:35 on domain   1:    0.31959 elapsed seconds
 SOLVE_NMM: TIMESTEP IS  6463   TIME IS   8.976 HOURS
d01 2005-08-01_20:58:35 AM: ATM_TSTEP_INIT entered: gid=1 NTSD= 6463 NPHS=  6 KDT= 1078 PHYS=F
d01 2005-08-01_20:58:35  avg global change (hPa/3h):   0.3815376
Timing for stats_for_move on domain 1:    0.00001 elapsed seconds
Timing for main: time 2005-08-01_20:58:40 on domain   1:    0.09620 elapsed seconds
 SOLVE_NMM: TIMESTEP IS  6464   TIME IS   8.978 HOURS
d01 2005-08-01_20:58:40 AM: ATM_TSTEP_INIT entered: gid=1 NTSD= 6464 NPHS=  6 KDT= 1078 PHYS=F
d01 2005-08-01_20:58:40  avg global change (hPa/3h):   0.3879429
Timing for stats_for_move on domain 1:    0.00001 elapsed seconds
Timing for main: time 2005-08-01_20:58:45 on domain   1:    0.13730 elapsed seconds
 SOLVE_NMM: TIMESTEP IS  6465   TIME IS   8.979 HOURS
d01 2005-08-01_20:58:45 AM: ATM_TSTEP_INIT entered: gid=1 NTSD= 6465 NPHS=  6 KDT= 1078 PHYS=F
d01 2005-08-01_20:58:45  avg global change (hPa/3h):   0.3812051
Timing for stats_for_move on domain 1:    0.00001 elapsed seconds
Timing for main: time 2005-08-01_20:58:50 on domain   1:    0.09815 elapsed seconds
 SOLVE_NMM: TIMESTEP IS  6466   TIME IS   8.981 HOURS
d01 2005-08-01_20:58:50 AM: ATM_TSTEP_INIT entered: gid=1 NTSD= 6466 NPHS=  6 KDT= 1078 PHYS=F
d01 2005-08-01_20:58:50  avg global change (hPa/3h):   0.3838887
Timing for stats_for_move on domain 1:    0.00001 elapsed seconds
Timing for main: time 2005-08-01_20:58:55 on domain   1:    0.14490 elapsed seconds
 SOLVE_NMM: TIMESTEP IS  6467   TIME IS   8.982 HOURS
d01 2005-08-01_20:58:55 AM: ATM_TSTEP_INIT entered: gid=1 NTSD= 6467 NPHS=  6 KDT= 1078 PHYS=F
d01 2005-08-01_20:58:55  avg global change (hPa/3h):   0.3878915
Timing for stats_for_move on domain 1:    0.00001 elapsed seconds
Timing for main: time 2005-08-01_20:59:00 on domain   1:    0.09678 elapsed seconds
 SOLVE_NMM: TIMESTEP IS  6468   TIME IS   8.983 HOURS
d01 2005-08-01_20:59:00 AM: ATM_TSTEP_INIT entered: gid=1 NTSD= 6468 NPHS=  6 KDT= 1079 PHYS=T
d01 2005-08-01_20:59:00 AM: ATM_TSTEP_INIT working: grid id = 1; KDT, n_ts:     1079    1079
d01 2005-08-01_20:59:00 AM: ATM_RECVdtc: AM time step dta=  3.000000000000E+01
d01 2005-08-01_20:59:00 AM: ratio of C/AM time steps:  6
 AM: ATM_TSTEP_INIT: returning            1        1079           1        1061           1        1235           1          59           1          62          -4          66          -4          69     1310335           4
d01 2005-08-01_20:59:00  avg global change (hPa/3h):   0.3844033
d01 2005-08-01_20:59:00 AM: ATM_GETSST entered (PHYS=.true.)
d01 2005-08-01_20:59:00  WITHIN THE GFDL SCHEME, NTSFLG=1 FOR GFDL SLAB  2010 UPGRADS           1
d01 2005-08-01_20:59:00 AM: ATM_DOFLUXES entered
d01 2005-08-01_20:59:00 AM: ATM_DOFLUXES to return
Timing for stats_for_move on domain 1:    0.00001 elapsed seconds
d01 2005-08-01_20:59:00 AM: ATM_SENDLUXES entered with PHYS but not sendSF: returning grid id = 1
d01 2005-08-01_20:59:00 TG extrema: max(wind)=21.18 max(w)=26.62 min(w)=-7.66  max(zhel)=.0206 min(zhel)=-.0177
Timing for main: time 2005-08-01_20:59:05 on domain   1:    0.33055 elapsed seconds
 SOLVE_NMM: TIMESTEP IS  6469   TIME IS   8.985 HOURS
d01 2005-08-01_20:59:05 AM: ATM_TSTEP_INIT entered: gid=1 NTSD= 6469 NPHS=  6 KDT= 1079 PHYS=F
d01 2005-08-01_20:59:05  avg global change (hPa/3h):   0.3818326
Timing for stats_for_move on domain 1:    0.00001 elapsed seconds
Timing for main: time 2005-08-01_20:59:10 on domain   1:    0.10702 elapsed seconds
 SOLVE_NMM: TIMESTEP IS  6470   TIME IS   8.986 HOURS
d01 2005-08-01_20:59:10 AM: ATM_TSTEP_INIT entered: gid=1 NTSD= 6470 NPHS=  6 KDT= 1079 PHYS=F
d01 2005-08-01_20:59:10  avg global change (hPa/3h):   0.3882801
Timing for stats_for_move on domain 1:    0.00001 elapsed seconds
Timing for main: time 2005-08-01_20:59:15 on domain   1:    0.14918 elapsed seconds
 SOLVE_NMM: TIMESTEP IS  6471   TIME IS   8.988 HOURS
d01 2005-08-01_20:59:15 AM: ATM_TSTEP_INIT entered: gid=1 NTSD= 6471 NPHS=  6 KDT= 1079 PHYS=F
d01 2005-08-01_20:59:15  avg global change (hPa/3h):   0.3815055
Timing for stats_for_move on domain 1:    0.00001 elapsed seconds
Timing for main: time 2005-08-01_20:59:20 on domain   1:    0.09633 elapsed seconds
 SOLVE_NMM: TIMESTEP IS  6472   TIME IS   8.989 HOURS
d01 2005-08-01_20:59:20 AM: ATM_TSTEP_INIT entered: gid=1 NTSD= 6472 NPHS=  6 KDT= 1079 PHYS=F
d01 2005-08-01_20:59:20  avg global change (hPa/3h):   0.3843576
Timing for stats_for_move on domain 1:    0.00000 elapsed seconds
Timing for main: time 2005-08-01_20:59:25 on domain   1:    0.14310 elapsed seconds
 SOLVE_NMM: TIMESTEP IS  6473   TIME IS   8.990 HOURS
d01 2005-08-01_20:59:25 AM: ATM_TSTEP_INIT entered: gid=1 NTSD= 6473 NPHS=  6 KDT= 1079 PHYS=F
d01 2005-08-01_20:59:25  avg global change (hPa/3h):   0.3883151
Timing for stats_for_move on domain 1:    0.00001 elapsed seconds
Timing for main: time 2005-08-01_20:59:30 on domain   1:    0.09710 elapsed seconds
 SOLVE_NMM: TIMESTEP IS  6474   TIME IS   8.992 HOURS
d01 2005-08-01_20:59:30 AM: ATM_TSTEP_INIT entered: gid=1 NTSD= 6474 NPHS=  6 KDT= 1080 PHYS=T
d01 2005-08-01_20:59:30 AM: ATM_TSTEP_INIT working: grid id = 1; KDT, n_ts:     1080    1080
d01 2005-08-01_20:59:30 AM: ATM_RECVdtc: AM time step dta=  3.000000000000E+01
d01 2005-08-01_20:59:30 AM: ratio of C/AM time steps:  6
 AM: ATM_TSTEP_INIT: returning            1        1080           1        1061           1        1235           1          59           1          62          -4          66          -4          69     1310335           4
d01 2005-08-01_20:59:30  avg global change (hPa/3h):   0.3848430
d01 2005-08-01_20:59:30 AM: ATM_GETSST entered (PHYS=.true.)
d01 2005-08-01_20:59:30  WITHIN THE GFDL SCHEME, NTSFLG=1 FOR GFDL SLAB  2010 UPGRADS           1
d01 2005-08-01_20:59:30 AM: ATM_DOFLUXES entered
d01 2005-08-01_20:59:30 AM: ATM_DOFLUXES to return
Timing for stats_for_move on domain 1:    0.00001 elapsed seconds
d01 2005-08-01_20:59:30 AM: In ATM_SENDLUXES grid id = 1
d01 2005-08-01_20:59:30 AM: ATM_SENDFLUXES to return grid id = 1
Timing for main: time 2005-08-01_20:59:35 on domain   1:    0.35376 elapsed seconds
 SOLVE_NMM: TIMESTEP IS  6475   TIME IS   8.993 HOURS
d01 2005-08-01_20:59:35 AM: ATM_TSTEP_INIT entered: gid=1 NTSD= 6475 NPHS=  6 KDT= 1080 PHYS=F
d01 2005-08-01_20:59:35  avg global change (hPa/3h):   0.3823823
Timing for stats_for_move on domain 1:    0.00001 elapsed seconds
Timing for main: time 2005-08-01_20:59:40 on domain   1:    0.09839 elapsed seconds
 SOLVE_NMM: TIMESTEP IS  6476   TIME IS   8.994 HOURS
d01 2005-08-01_20:59:40 AM: ATM_TSTEP_INIT entered: gid=1 NTSD= 6476 NPHS=  6 KDT= 1080 PHYS=F
d01 2005-08-01_20:59:40  avg global change (hPa/3h):   0.3889571
Timing for stats_for_move on domain 1:    0.00001 elapsed seconds
Timing for main: time 2005-08-01_20:59:45 on domain   1:    0.13670 elapsed seconds
 SOLVE_NMM: TIMESTEP IS  6477   TIME IS   8.996 HOURS
d01 2005-08-01_20:59:45 AM: ATM_TSTEP_INIT entered: gid=1 NTSD= 6477 NPHS=  6 KDT= 1080 PHYS=F
d01 2005-08-01_20:59:45  avg global change (hPa/3h):   0.3823970
Timing for stats_for_move on domain 1:    0.00001 elapsed seconds
Timing for main: time 2005-08-01_20:59:50 on domain   1:    0.09735 elapsed seconds
 SOLVE_NMM: TIMESTEP IS  6478   TIME IS   8.997 HOURS
d01 2005-08-01_20:59:50 AM: ATM_TSTEP_INIT entered: gid=1 NTSD= 6478 NPHS=  6 KDT= 1080 PHYS=F
d01 2005-08-01_20:59:50  avg global change (hPa/3h):   0.3852890
Timing for stats_for_move on domain 1:    0.00001 elapsed seconds
Timing for main: time 2005-08-01_20:59:55 on domain   1:    0.13753 elapsed seconds
 SOLVE_NMM: TIMESTEP IS  6479   TIME IS   8.999 HOURS
d01 2005-08-01_20:59:55 AM: ATM_TSTEP_INIT entered: gid=1 NTSD= 6479 NPHS=  6 KDT= 1080 PHYS=F
d01 2005-08-01_20:59:55  avg global change (hPa/3h):   0.3892378
d01 2005-08-01_20:59:55 Top of Radiation Driver
d01 2005-08-01_20:59:55 CALL cldfra2
Timing for stats_for_move on domain 1:    0.00001 elapsed seconds
Timing for main: time 2005-08-01_21:00:00 on domain   1:    0.86780 elapsed seconds
d01 2005-08-01_21:00:00 open_hist_w : opening gsi_wrfhwrf_d01_2005-08-01_21:00:00 for writing.
Polling I/O servers...
I/O server 1 is ready for operations.
d01 2005-08-01_21:00:00  med_hist_out: opened gsi_wrfhwrf_d01_2005-08-01_21:00:00 as DATASET=AUXHIST4
Timing for Writing gsi_wrfhwrf_d01_2005-08-01_21: for domain        1:    0.11981 elapsed seconds
Polling I/O servers...
I/O server 2 is ready for operations.
Polling I/O servers...
I/O server 1 is ready for operations.
d01 2005-08-01_21:00:00 wrf: SUCCESS COMPLETE WRF
